      31
 i =      117, E =      -155.3250827326
  O         0.8769179233        2.1616382829        0.1860080468
  O         4.5894973880       -0.6893710837        1.4465904176
  O        -3.1914536757        0.9394590496       -1.2580635285
  O        -1.7588190986       -2.1049104744       -0.0215065898
  N        -0.8157442064        0.0241435783       -0.0366915415
  C         0.5287599642       -0.2300617274        0.3442563782
  C         1.4072357485        0.8798947539        0.4047012302
  C         1.0420963994       -1.5010919179        0.6737325971
  C         2.7533311647        0.7185653030        0.7383706132
  C         3.2570143479       -0.5545808801        1.0360360499
  C         2.3918770770       -1.6562312686        1.0154497639
  C        -1.8552817023       -0.8846603335       -0.2073461912
  C        -3.1563431552       -0.2988746215       -0.6187317860
  C        -4.4349177306       -0.7796044720       -0.4800546423
  C        -5.3250342752        0.1995670953       -1.0435224666
  C        -4.5195562047        1.2102362024       -1.5077645902
  C         1.2887487166        2.7644724696       -1.0762832511
  C         5.5370738387       -0.9607774327        0.3784209863
  H         0.3769340783       -2.3536677382        0.6538982211
  H         3.4037276239        1.5868919499        0.8020147162
  H        -1.0312339964        1.0109604738       -0.1687833911
  H         2.7742503329       -2.6387157868        1.2793752681
  H        -4.6462684576       -1.7346478471       -0.0182693312
  H        -6.4094244101        0.1577921959       -1.0986908263
  H        -4.6815611458        2.1441724549       -2.0256782540
  H         0.8800568670        3.7786723933       -1.0769174349
  H         2.3831748157        2.8040821449       -1.1489142152
  H         0.8856474442        2.1935661294       -1.9247590416
  H         6.5516275744       -0.8808553568        0.8105337055
  H         5.4418016237       -0.2263587585       -0.4357444858
  H         5.4103264755       -1.9773554075       -0.0247593981