     510
 i =    38725, time =    19362.500, E =      -693.3292662731
  S         6.5971282725        7.4415142201        5.8225576693
  O         6.9227762317        2.7635389079       10.4896695752
  O         2.1349391083        2.0788116190        9.6097795935
  O         7.9279002371        5.4468645417        6.5550916752
  N         7.0087995699        4.6185978770        8.5072931872
  C         5.7567792659        4.1586298320        8.8836346177
  C         5.6936570801        3.0228378640        9.8219203685
  C         4.6460763489        4.3913733131        8.0719499971
  C         4.4606970114        2.3824296567       10.0553002351
  C         3.3552347457        2.7261254572        9.3343272572
  C         3.4190277434        3.7412565183        8.3853462022
  C         7.4636503027        5.8058141972        7.8866491957
  C         6.4871696913        6.9503299361        7.4859951865
  C         5.7210250042        7.8364827591        8.2931539743
  C         5.3031117729        8.9164517650        7.4680238702
  C         5.7523658531        8.9196938540        6.1291305969
  C         6.8425445909        2.3242618493       11.9054061969
  C         0.9754971726        2.5228723098        8.9442745836
  H         4.7865466317        5.2396988528        7.3134465143
  H         4.4082321824        1.5694198890       10.7927233079
  H         7.6372776467        4.4393869550        9.2719223993
  H         2.5173159897        3.9575940595        7.7965459439
  H         5.5851416254        7.7708302404        9.3768739860
  H         4.9495449094        9.8458079305        7.9752918304
  H         5.4575649364        9.6197358992        5.3871723151
  H         6.3235367977        1.3605648291       12.0659961976
  H         6.3620364045        3.1863371412       12.4366215113
  H         7.8608001838        2.2976370845       12.1899810351
  H         0.0968264383        2.0181575840        9.5244800506
  H         0.7863743136        3.6182336322        9.0474615018
  H         1.0774045204        2.2633871220        7.9100400231
  O         4.3105550761        2.0559793534        5.5192650653
  H         4.6488124133        2.9407940628        5.1888410682
  H         5.0514204166        1.4529367547        5.2141736503
  O         2.3313157852       18.9023189503        0.1175064305
  H         2.2160266460       19.5627032843        0.8080275456
  H         1.7088111497       18.1888515825        0.4104581035
  O        -5.3758242659       19.3737500541        2.1677857160
  H        -5.3808423095       18.4791402284        1.7628467367
  H        -5.7066032098       19.3520544760        3.0630509999
  O        10.6402896448        5.7956035594        6.8665962199
  H         9.6692805344        5.4789186252        6.8534169222
  H        10.7441487291        6.3117499268        7.6699845062
  O        24.4492250536       14.0081127015        5.4627424455
  H        25.1986548010       14.4222660031        5.9376195466
  H        23.6473267351       14.2211112871        6.0586862485
  O         1.7038032809       19.6997309209       -3.8802706042
  H         1.1300074631       19.2588329008       -3.2213342367
  H         1.7303166079       19.0256573796       -4.5675349283
  O        -0.4422787638       -0.9586305548        9.4611878382
  H        -1.3033225295       -1.4105960996        9.5723082061
  H         0.2177334421       -1.6008504322        9.1721250903
  O         0.0252232183        9.7187832639       22.2442388348
  H        -0.0906571657        8.8758793608       21.7304865054
  H         0.1129580037       10.3043009876       21.5138090903
  O        11.5448078825       -1.0528805315        3.6965516586
  H        11.6582474521       -1.3739730456        4.5953119401
  H        11.0017297505       -0.1998233776        3.6120026651
  O         6.8399639860       12.2975556498       -8.7860122549
  H         6.9282218865       13.1502018447       -8.3664613004
  H         6.8876147424       11.6172425356       -8.0038078291
  O         3.1180247282       10.4773793596       19.3749571366
  H         3.1846596901       10.0865949376       18.4980800075
  H         2.8496284194        9.7777475406       20.0011437722
  O        14.9869171446       -2.7775289126        6.9920432597
  H        15.8117034284       -2.3224040663        6.7523750630
  H        14.2530666385       -2.3507418160        6.5368811743
  O        10.5851538996        1.5598839356       16.3285863389
  H        10.7400906183        0.6238753304       16.0587805342
  H         9.7648082976        1.5108386326       16.8483649775
  O        18.7312639626        4.6855186405       -0.6396081347
  H        17.9768363057        4.7210995499       -1.2786418433
  H        19.2736593327        3.9841381706       -1.0492018421
  O         5.1432443921        8.3836988035       17.0134942451
  H         5.4396494946        7.8344192244       17.7498025015
  H         5.3965924187        8.0225946114       16.2016477045
  O        14.3612729811       -5.5692170935        7.2078867661
  H        14.3986202568       -5.1695725817        6.2511922493
  H        13.9492639246       -4.8791630748        7.7876258438
  O        14.4653676998       12.7706419573        1.3827014646
  H        14.2960610889       11.7879887513        1.2494606827
  H        13.5706982996       13.1382147492        1.6711400613
  O         8.4280993626        6.4861781605        8.8168960955
  H         7.9076604450        6.5452414290        9.7064937080
  O         4.6932476273       17.1907281433       12.4385980655
  H         5.2928164400       16.6116182135       12.9319100074
  H         3.8198723010       16.9838924933       12.8677216805
  O        14.4174280975        4.2707441638        4.0408549190
  H        13.8913539457        4.3659649819        4.8523686319
  H        13.9382390414        3.5937161427        3.4997383085
  O         2.6541699690       -9.7009175852      -11.3400154267
  H         3.0626106394       -9.3493178673      -12.1492258820
  H         3.3170148935       -9.9553837134      -10.6630949412
  O         7.7050564797       14.6313950341       16.5880227043
  H         6.9102276687       14.9176554938       17.0176360638
  H         8.1315960964       13.8300243211       16.9815649952
  O        18.7096815294       -5.1509095450       27.4592780347
  H        18.5205774011       -4.3279412556       27.0633925333
  H        17.9339125288       -5.6356231243       27.6833826547
  O        19.1659801236        2.3144343087        3.2728664603
  H        19.8000800425        2.5528666691        3.9567171193
  H        18.3862030456        2.1078165329        3.7555620346
  O         9.0971714024       12.4021424655       17.1839898098
  H        10.0600928454       12.1517125690       17.0221714583
  H         8.6035984308       11.6719600501       16.7073181562
  O       -15.8702683360       17.6215921133       11.4378562980
  H       -16.7676079399       17.4157264879       11.1500914228
  H       -15.2974879396       17.2680348164       10.7553122819
  O        19.2049711983        8.5988245523        8.7526621139
  H        19.6663556226        8.7025094288        9.5893400758
  H        19.5739342997        9.0543604179        8.0387648294
  O         2.6906576953       -0.0534030221        6.7380721239
  H         3.2617625150        0.6804896173        6.3759491193
  H         3.0985879941       -0.1780159214        7.6599312156
  O         9.3106795324        2.7250613153        7.3629136660
  H         8.6177454395        2.9252461794        6.7099026670
  H         9.7216157106        3.4689481272        7.7769511100
  O         0.6775296932        6.0285173243       -9.9564904244
  H         0.9966134915        6.0971382047       -9.0601803492
  H         0.7650495517        6.8724820018      -10.4041482663
  O        13.3760783900       -2.9166026065       -1.5902086776
  H        14.0030965606       -2.7486918766       -2.3285493763
  H        13.8763105966       -2.7164546276       -0.7844368375
  O        14.0112011501       12.3461228512        4.5867455048
  H        13.5217472022       11.7039572760        4.0828352735
  H        13.5713469309       13.2045468903        4.5029719603
  O        17.3385990038        9.7037999672        0.2637849463
  H        18.2725536816        9.5228495074        0.0804371358
  H        17.0911763313       10.5990089978       -0.0303801479
  O         8.6384668061       15.5822354510       12.2196814796
  H         8.9434213029       16.1034543059       11.4644859482
  H         8.9408895229       14.6573931163       12.0136398942
  O         4.1743121664       10.9572470950       -6.6891742109
  H         3.7416937706       10.9358289095       -7.5627932895
  H         3.5497538320       10.5022465212       -6.1313793764
  O         6.9638868533       19.3583486538       -1.2807668877
  H         6.3388382056       19.9804567722       -1.6003047085
  H         7.1566258843       18.6009370818       -1.8709679070
  O         0.3386483178       13.1221264276        5.7296686420
  H        -0.4308636123       12.6574939134        5.5234187704
  H         0.8001815291       13.1048985323        4.8799177653
  O        -1.7740900165        8.1826607228        7.1947317796
  H        -2.5643377923        8.0963991320        6.6440590476
  H        -1.2227379597        8.8635772620        6.6956881721
  O        26.3108244803       11.8432400298        4.0085804124
  H        26.0424131273       10.9164513224        3.8597884578
  H        25.8020532197       12.2826542376        3.3277843566
  O        15.9327625864       14.1194800481       -3.0990946023
  H        15.9971356359       14.9159951997       -3.6500605199
  H        16.3751623457       14.3859865981       -2.2345562498
  O        18.2926023473        9.6302874842       -4.8891284777
  H        17.4487011992        9.2778554902       -4.6255858640
  H        18.2991333645       10.5614746633       -4.6084632211
  O         4.9987122008        4.9533918032       16.1327789412
  H         4.6320760336        4.2696690054       15.6090975177
  H         4.2368521098        5.2532699693       16.6295214835
  O        13.0563161063       14.7577707041       -6.1607504846
  H        13.0909619104       15.7164735054       -6.0549392993
  H        12.9909123921       14.3182843789       -5.2713193539
  O         4.9476264411       14.7467729437        9.8448634309
  H         4.7600402617       15.3206770695       10.6063686711
  H         5.3811893139       13.9312705960       10.2182141120
  O         0.5480956087        0.2310216511       14.2375717466
  H         0.5071220636        0.3329371997       15.1982365824
  H         1.3856476426       -0.1425024807       14.0288798195
  O        11.8847470310      -10.2067710588        3.9673343492
  H        12.7250125957       -9.7454759153        4.0154208563
  H        11.6105607944      -10.2406411754        4.8885475287
  O        -0.8934863460        7.5692996695       -7.0764544279
  H        -1.4100862135        7.4758040220       -7.8868345756
  H        -0.7506667175        8.5144420430       -6.8980413401
  O        -4.0395452991        2.6995266746       12.2336986180
  H        -3.0526984323        2.7214416924       12.2697855282
  H        -4.3856613361        3.6380253799       12.4453412244
  O        15.2492944571        4.0184173245        8.8627899045
  H        14.6624291241        4.5536780015        9.4234395147
  H        15.1503111391        4.4489547551        8.0298749567
  O        25.8404787820        7.4475819639       14.1775637075
  H        26.6643813058        6.9194587192       14.0749969361
  H        26.0616481881        8.4016263088       14.1905331523
  O        14.9103745922       10.0443781206       19.0398209735
  H        15.7497845619       10.4861286750       19.2149366158
  H        15.1547695689        9.1055976074       18.7859962282
  O         4.6445725527        5.3052249118       12.1174188352
  H         5.1822304741        4.9931656214       12.8645998185
  H         4.0029902869        4.6544991247       11.7804735594
  O        14.0043692861       19.0220056090      -10.4612884774
  H        13.5279498443       18.3122821951       -9.9615534514
  H        13.3751064705       19.7604026699      -10.3169485358
  O        -0.2596715974       -8.9870160290        2.7420247046
  H         0.0770007534       -8.4322995262        2.0114391047
  H        -0.3960000107       -9.8611885501        2.3081621644
  O         1.0736485243        5.2678631500       20.9130443535
  H         1.2332226064        5.0310622813       21.8586892035
  H         0.7684705385        6.1571879239       20.9259196330
  O        12.3927819643       -7.6015851211       24.2343802269
  H        13.1587228291       -6.9536841135       24.3793924699
  H        11.9134356961       -7.3277795116       23.4428741263
  O        11.4566803866       -1.5315872436       17.3699257574
  H        10.5188396394       -1.7605610148       17.5633549854
  H        11.5754821984       -1.8466752752       16.5047144832
  O        21.2608504202       12.3742592677        3.9937066120
  H        20.7631627154       11.7310494170        3.3682459584
  H        20.6672947888       12.5818292051        4.6997491775
  O         4.9923013237       18.2543656678        1.5261840322
  H         5.6626423982       18.3913924708        2.2943998147
  H         4.1535968713       18.7585591414        1.7259669625
  O         9.5556462843        7.9847447666       19.7761035483
  H        10.3389683514        7.4440780454       19.5533681338
  H         9.4802202747        8.6097278857       19.0564251816
  O        -4.9196027583        5.9023168984       11.3899622023
  H        -4.5709338560        5.8747121706       10.4629554679
  H        -5.5438596661        6.7165684686       11.3355997071
  O        22.7098212627       14.6398828887       -3.5163479763
  H        23.2541740159       14.6220076722       -2.7391863755
  H        21.9503744140       14.0395829299       -3.4193890755
  O         6.6210135498       17.0660624376        9.2631794520
  H         6.5632280549       18.0076040143        9.3066114717
  H         6.4905211291       16.7074467085       10.1233035534
  O         7.1447454670       12.9163881756        2.4557564161
  H         6.2003415817       12.8299004587        2.4025475879
  H         7.2768048319       13.3014207119        3.3471548871
  O        11.4626294219        0.1600615634       28.6296878055
  H        12.1749853378        0.8820332473       28.7935541436
  H        10.8086567327        0.6620655478       28.0051264353
  O        10.1530499291       -2.3573181693        9.0728116120
  H        10.3384677637       -3.2268621753        8.6807273393
  H        10.9869591611       -1.9005945539        8.9823773776
  O        22.8680590947       16.9506652952        4.8824756943
  H        22.8997367424       16.6409332211        5.7577302525
  H        23.7775537894       17.0526220422        4.5522223223
  O        -0.6780938659        4.6997431966        0.8413381976
  H         0.2612891391        4.9564387358        0.8457994079
  H        -0.8055890654        3.7830399332        1.1706764151
  O        22.9037835718       -9.5099442156       -3.1428529165
  H        22.9360653259       -8.7905783772       -3.8038268258
  H        23.8633084331       -9.6651157784       -2.9719990147
  O        20.3805291150        4.7017387029        2.1834817665
  H        19.4264337201        4.5870850593        2.2152512222
  H        20.7072104186        4.7637221747        3.1642175291
  O         3.3796812045        6.5557131001       -2.0404434329
  H         3.0126293596        5.9743780087       -2.7285686122
  H         4.2474377481        6.8481006146       -2.2996490050
  O        11.9758195038       17.4030580505       -9.2441529734
  H        11.1055097304       17.0698040729       -9.3896066357
  H        12.0102874023       17.8315642059       -8.3977944937
  O        10.6072881739       -0.9091653912       14.0552292860
  H        10.7433552162       -0.6578827783       13.0930151674
  H        11.2710220475       -0.3206299466       14.5097897438
  O         8.0280406420       16.9603085039       14.5840434982
  H         8.1489775988       16.3255739639       15.2714992976
  H         8.7005642266       16.7591351222       13.9082617491
  O        11.1402363219        8.6267841861        0.1026145350
  H        11.2524629360        8.6288123745       -0.8447447946
  H        11.8109899500        8.1128904294        0.5247069151
  O        17.2094050975       17.0721867741        0.1931176083
  H        16.2819240213       17.3550617978        0.3180724201
  H        17.2233400929       16.1215006708       -0.0586553074
  O        18.2126938632        5.6137832052       10.3802567273
  H        17.3045847285        6.0723777621       10.4913523495
  H        18.8187686237        6.2867835677       10.0395706365
  O        10.1329982056       25.6902578128        5.4886333431
  H         9.1370665848       25.5885508412        5.5637804133
  H        10.7004315806       25.0379917354        5.8835582043
  O         8.8240165331       21.0861362101        4.4178310205
  H         8.8046724643       21.7127989905        3.7305728691
  H         8.5524770301       21.5029857677        5.2510843102
  O        -1.1853904851       -7.9205750790       13.0544692653
  H        -1.4775292954       -8.8627527723       13.1546547179
  H        -1.9106768767       -7.5721457807       12.4380541703
  O        20.6215947438       -0.8900141949        3.0764153370
  H        21.2539580833       -1.2138731297        3.7022350253
  H        20.9993252518       -0.2093334353        2.5054628824
  O         7.6647396295        6.6135362676       17.2446559467
  H         8.5404338263        6.4732936349       17.7724298446
  H         7.4786859614        5.6572611525       17.0261165341
  O        17.7446066476        5.7697214192       -3.8569815479
  H        18.4267475975        5.1033507097       -3.8806506333
  H        17.6127763592        6.0262347743       -4.7570117007
  O        12.5286110155        7.5202025644       -2.6493651565
  H        13.0113219523        7.6155276279       -3.4295494375
  H        13.1568429865        7.9148965847       -2.0310858561
  O         0.5557802712       16.9207819209       20.2135457662
  H         1.3156175917       16.7745797964       19.6642634775
  H        -0.2423819042       17.3375862624       19.8596943837
  O        -1.7493392006       -0.8663432263       -4.6876180069
  H        -2.0153355356       -0.1063010126       -4.1540200988
  H        -1.3436836206       -0.5767391293       -5.5452655815
  O        11.3384837681       10.7038323244        9.4436472269
  H        11.0273699571       10.9133769990        8.5482758300
  H        10.8348316207       11.1234564899       10.1632419340
  O         4.2917636939        8.0624177818       11.2825268389
  H         3.8829289945        8.3094894379       12.1525150419
  H         4.4688280963        7.1254845861       11.3495371621
  O        14.3876786432       18.1506564254       -2.4289420724
  H        13.5326712357       18.6009432922       -2.2467805324
  H        15.0718274176       18.8712313605       -2.2849332748
  O        20.1125187354        7.8579871466        3.1032685220
  H        21.0019760520        7.8467647880        2.6913461642
  H        19.6279027833        7.1669802829        2.6546953429
  O        23.8675678931        9.9893753463       10.9782591813
  H        24.4575827523        9.9193907465       10.2173571403
  H        22.9377059792       10.1707307736       10.7929264268
  O        -8.4197153505        9.8773196883        8.3446397411
  H        -8.3079635042       10.0407726053        7.3567318115
  H        -8.3971081613        8.9019920879        8.4614468072
  O         5.6477901770       -1.5610738194        7.3531052452
  H         4.7737149480       -1.9596743963        7.4930488638
  H         5.6955652867       -0.8383249441        7.9909112762
  O        11.1259238418       14.9133718980       23.1167222418
  H        11.7561242435       14.9351005404       23.8401122762
  H        10.4977148436       14.1912619148       23.3351665489
  O         4.7644290326       28.1997397055       -1.2493251588
  H         5.1397780074       28.5636032039       -0.4401512841
  H         4.9553417661       27.2279569229       -1.1379558567
  O        -7.4209600776       -4.5539464599       13.9955392235
  H        -8.3146590334       -4.4491923368       14.3146139305
  H        -6.8458257959       -4.1446317849       14.6867274020
  O        14.6873043168        6.6647088526       12.5684666154
  H        14.1405719013        6.2443741520       11.8004669488
  H        15.3494553814        5.9728111612       12.8273029675
  O        16.0738253206       -2.6024783727        3.0075795291
  H        15.5285696222       -2.7865040957        3.7810567698
  H        16.1945131605       -1.6417075818        2.9500203060
  O        -3.9245215325        4.7981387338       15.4800420827
  H        -3.5458208633        5.4239725314       16.0786265868
  H        -4.5327071712        5.2365422572       14.8897318940
  O        -4.4217364133       -3.6974160810       -8.6077590306
  H        -4.7820035777       -4.5900940364       -8.5030305868
  H        -3.6690754139       -3.5253623039       -7.9979614778
  O       -13.4017577667       -3.8784044190       -4.6591211556
  H       -14.2477041617       -3.8466830658       -4.2088581365
  H       -13.5024561503       -4.2408339068       -5.5288789342
  O        10.1166545236        8.0554431202       11.2408515941
  H         9.1051203661        7.8944031269       11.1976402090
  H        10.3577286954        9.0033117066       11.1134830332
  O        15.8156387759        3.5635256503       12.2614018100
  H        16.4394858069        2.9941188495       12.7559278345
  H        16.4221272747        3.5367097031       11.5178836760
  O         4.6443550343       10.5894036283       -3.9956575114
  H         4.7288367762       11.4706832953       -4.2906827826
  H         4.0481956698       10.5763053425       -3.1982198205
  O         0.2447229486       11.8093422531        2.7382063281
  H         0.8511550235       12.5185244601        2.5619801168
  H        -0.6735819655       12.1381453339        2.6188804677
  O         7.7636122467       10.5487463280       -2.3650639683
  H         7.2322710164       10.8990912822       -3.0557279926
  H         7.2330247437        9.8924122272       -1.8650640626
  O         7.1462774201       12.8399324527       10.8214123315
  H         7.7411037766       13.5826972162       10.7628734915
  H         6.2880255633       12.9973516089       11.2993615835
  O        17.4166116686       14.4053536673        0.4745345942
  H        16.5051549558       13.9201998795        0.3918960013
  H        17.8190250593       14.2324892635        1.3441527676
  O        13.5626794179        6.0514553799        1.0644922066
  H        12.9895665578        6.3647021894        1.7582518892
  H        14.2600289358        5.4817686640        1.4708095683
  O        -1.9527232719       11.5561249434       15.8606991938
  H        -1.9386735429       11.7104753495       14.9491219017
  H        -1.3188719197       12.1787291038       16.2785569974
  O        14.5642648609       17.1242597361        4.0998325285
  H        14.9529418528       17.2275618925        4.9547130633
  H        13.6278987800       17.2596309782        4.3046126832
  O        14.1627122585        9.1842948050       21.5313927683
  H        14.9817480011        9.6672705214       21.5798733842
  H        13.6303167659        9.5105022750       20.7575507167
  O        19.3416500656       10.8416620444        6.0119278643
  H        20.0174125239       10.3664044448        5.5518823316
  H        18.6898435631       10.1761503480        6.2292944914
  O        -0.4447135453       -0.1025883251        5.9894405806
  H        -0.1887329058        0.2803713332        6.8080498094
  H         0.2066748891        0.1194535356        5.3320047746
  O         7.4756018383        6.7056267467       -5.5311622493
  H         7.3839399085        5.8934841077       -4.9714219358
  H         6.9303749592        7.3629210741       -5.1102559287
  O        -9.0080618490        1.6876973364        3.6400386136
  H        -8.8025912559        2.4966062253        4.1129452285
  H        -8.3493636789        1.0874132908        3.9537058843
  O         7.2550173076       21.5917909542       13.9701282530
  H         6.7712426274       22.2105706348       14.4728502434
  H         8.0554492044       21.5769340390       14.4210367050
  O        -4.6388772715        3.3044434502       -7.9765568651
  H        -5.4954641883        3.6515653357       -7.5797116222
  H        -4.1226944577        2.9633050710       -7.2236064953
  O        26.1270056437       16.5128609411        7.1740514040
  H        25.3328461480       16.9831469996        6.8658404335
  H        25.8845358208       16.0297616228        7.9719898639
  O        15.2574951768       13.3048067131       -7.3947581445
  H        15.4683330307       13.3717948312       -6.4438129810
  H        15.9275613809       12.6609707843       -7.6972909001
  O        -4.6512662987        7.2365815355        8.8645058120
  H        -3.7385950478        7.2351809663        9.3322490087
  H        -4.7431070667        8.1817521228        8.5773695090
  O       -13.8045522958       15.9685447080       14.5295232025
  H       -14.1315196125       15.0427515716       14.3706954349
  H       -13.4201857114       15.9925918709       15.3939708193
  O         9.4526933598       11.4892715139       11.2192793761
  H         9.7202285365       11.9617313817       12.0202225354
  H         8.4798802637       11.4120576894       11.2822666196
  O         1.3973188095       13.9660595513        8.4191580556
  H         2.3339919650       14.3741418676        8.2499864086
  H         1.0191018389       13.7404694425        7.5523494046
  O        -3.5748505261       19.3756227626       16.6011949071
  H        -4.5467026610       19.3817073933       16.7122726626
  H        -3.3671065006       20.2160715072       16.0475752281
  O         5.5180730828        4.8053655267        4.7107230802
  H         5.6007234607        4.6125495183        5.6770525735
  H         6.3247045003        4.5338600394        4.2131712571
  O         5.7457647506        7.0270438405        2.5047144907
  H         5.7735380264        6.0717748213        2.2492575088
  H         6.4880176611        7.3081959369        3.0713975065
  O        11.5577895933       -6.6102179853       13.1700284942
  H        10.6733737508       -6.2313847092       13.1639823595
  H        11.3431034694       -7.5174217819       13.4237610531
  O        12.0163997715       13.3574512002        2.6661924394
  H        11.5986842959       12.5058801121        2.8282460443
  H        11.5177585439       14.1254310399        3.0915325705
  O        20.8640245245       12.7854584624        7.7842560063
  H        21.8058476437       12.6255278192        7.6931794583
  H        20.3893332963       12.1437894428        7.2547363780
  O         4.5388057970       13.2590225678        0.8202630872
  H         4.0441445722       14.1278926608        0.8807626637
  H         4.3547070665       12.7185697673        1.6447634128
  O        16.9599455348       19.9570013159      -11.3578688560
  H        16.2332373927       19.2805837890      -11.5015279471
  H        16.4427265435       20.6976833334      -11.1078218811
  O        18.2102991760       14.8113870622       -5.1021416890
  H        18.6892061503       15.7110859207       -5.1978941467
  H        18.2298115558       14.4150000432       -5.9724975504
  O        14.6023990914       -0.8510357869       -0.1286492285
  H        14.3838465094       -0.1995111716       -0.8604198592
  H        13.8024842436       -1.0247595500        0.3942650684
  O        -2.9228584396       11.7461487624       12.9934738339
  H        -3.8744182888       11.3830441587       13.0774023140
  H        -2.9786579367       12.3640915670       12.2291587524
  O        -3.1255977141       26.2103985058       10.9447252699
  H        -3.2465488204       26.8649866198       10.2715003861
  H        -3.9487997293       25.8869205542       11.3311412684
  O         2.0650889990        9.0851201793       15.1577706291
  H         2.0486119133        9.5763579378       14.3406837647
  H         2.1445378649        8.1378900241       14.9290331012
  O         8.4120264848       17.4544243226        0.7606314208
  H         7.4975583753       17.3980319295        0.5246288838
  H         8.4095362838       18.1645575600        1.4421133244
  O         9.9835743620        3.9714941168       10.3847525387
  H        10.0038605102        4.2923989365       11.2880566403
  H         9.6648151176        4.6920330218        9.8567530500
  O        11.0191118967       19.0791879722        4.9754971272
  H        11.3410568409       18.4132693245        5.6177095834
  H        10.3770301023       19.6365015197        5.4761980071
  O        11.6700163999       12.0368474665       -0.7017405777
  H        12.2999710008       12.6821578578       -1.1555475628
  H        12.2059829302       11.2261717420       -0.7471018942
  O        10.1695519977        3.3731685574       -3.0259682349
  H        10.0747521083        3.5613417892       -2.0664403092
  H         9.9555613176        2.4429010676       -3.0615647102
  O        16.1503380969        3.3108449466       15.1134943997
  H        16.3346762948        3.5041349110       16.0222219120
  H        16.0201892095        4.1314979677       14.6179602481
  O         1.8528299956        7.1323562166       17.3625507126
  H         1.3352806404        6.9708128674       16.5655817661
  H         2.7354658176        6.9280019097       17.2844804813
  O        -3.9542471049        4.7512100709        6.5385749416
  H        -3.3994088014        5.0747026006        7.3057321061
  H        -4.8635493158        4.5759691779        6.9296722294
  O        22.0785798158       -0.8423101470       -0.4866006434
  H        22.1239309945        0.0236259341       -0.0478340004
  H        22.7144913372       -0.8610069615       -1.2083609087
  O        16.9167634353       -6.1193861317        8.6190535158
  H        16.0820688093       -6.1831588443        8.1166614512
  H        17.2656760495       -7.0371487677        8.6066556147
  O        11.7223993206       10.4456136587       19.6148352554
  H        11.3053615419        9.6341638235       19.8866196094
  H        11.4919505656       10.4390107229       18.6788135448
  O         8.6900584364       15.6500746760        3.6609184872
  H         8.1964957039       15.4656075295        2.8093825287
  H         9.4776087009       15.0168095988        3.6745981365
  O         1.9535717788       13.8575900797       20.2578404329
  H         1.3793220646       14.4255644901       20.8872187321
  H         2.9057469849       13.9252263325       20.5722479689
  O        14.4508048963        8.7438234080       15.9068271418
  H        15.2851772397        8.4443616735       16.2573835537
  H        14.5131817180        9.6907496520       16.1857376362
  O        -1.5091198621       19.0582096568       18.5273053478
  H        -1.7682629541       18.8923987266       19.4427799897
  H        -2.3362329747       18.9606584940       18.0044093281
  O        10.7871783261       21.8966663507        1.5679892726
  H        11.2372040226       21.1053359721        1.2185959988
  H        10.9460273299       21.8202318123        2.5156681525
  O        19.4600760369       12.8488612456       -1.5671301362
  H        18.6640900620       12.4236567338       -1.3987689458
  H        20.1388840138       12.2075126940       -1.3267112619
  O         9.4437310892        1.1150428221        9.7811873971
  H         9.1943852562        1.8859811628       10.3014922702
  H         9.0248050568        1.2221977515        8.9135040704
  O        16.9382405566       11.8154457900       -4.3108285537
  H        16.5741801792       12.7146297159       -4.1681212154
  H        15.9880940087       11.3442097924       -4.3099807989
  O         6.5761475142       20.8669773757       18.4900449452
  H         7.3157714781       20.4062507623       18.1462249024
  H         5.8084865935       20.9486628016       17.9260258499
  O         3.8703729937       19.5586779803       14.9520045105
  H         3.5507827446       19.2291976518       14.0896357863
  H         3.3907317621       18.9781156142       15.5447185835
  O         9.6772281838       12.5213594927        6.8630587139
  H         8.7712039265       12.5607501132        7.1848076042
  H         9.6654848374       11.9309546566        6.1244017707
  O        -2.4273325050       18.2134626512       10.0631460059
  H        -2.1110033962       19.0317657025        9.6802940890
  H        -2.8767936901       17.7395869479        9.3731901671
