     39
 i =       36, E =      -109.4019702399
  C        -0.4263990695        0.0443997317       -0.0125467182
  C        -2.5751768618        1.4311928674       -0.0008913384
  C        -2.5084629155       -0.7570550831       -1.2693566486
  C        -2.4983192258       -0.7574972477        1.2652351859
  C        -1.0291558134        1.4782077504       -0.0068985351
  C        -0.9621578678       -0.7027671362       -1.2762199832
  C        -0.9505535810       -0.7012651284        1.2592496624
  C        -3.0698613175        0.6874756192       -1.2671119694
  C        -3.0625743270        0.6859303978        1.2673148204
  C        -2.9959406232       -1.5042047538       -0.0003024899
  C         1.1032958594        0.0520441074       -0.0260214521
  C         1.8589267317        1.2334735638       -0.0308050434
  C         1.8105035590       -1.1670070052       -0.0330989392
  C         3.2592455594        1.2000471071       -0.0347102656
  C         3.2040659480       -1.2004435142       -0.0369582440
  C         3.9559189795       -0.0130473721       -0.0351120417
  C         5.4680776082       -0.0482011557       -0.0170698173
  H        -2.9638741294        2.4589326722        0.0010389088
  H        -2.8542360882       -1.2880116271       -2.1671978176
  H        -2.8356320141       -1.2895568783        2.1657298494
  H        -0.6801885583        2.0280127937       -0.8922400722
  H        -0.6734032965        2.0218623000        0.8798380720
  H        -0.5526715535       -1.7208288991       -1.3015113824
  H        -0.6025432913       -0.1836656103       -2.1758094938
  H        -0.5857294647       -0.1794532099        2.1552836716
  H        -0.5401329384       -1.7190784341        1.2850177674
  H        -4.1712388978        0.6659203783       -1.2865800836
  H        -2.7305741389        1.2204001273       -2.1675285236
  H        -2.7218734404        1.2188424724        2.1671213456
  H        -4.1640376323        0.6616076221        1.2905971982
  H        -4.0983365089       -1.5589593149        0.0039611541
  H        -2.6111245806       -2.5350560676       -0.0021844832
  H         1.3643301891        2.1992132250       -0.0248022144
  H         1.2608082801       -2.1050431286       -0.0280733337
  H         3.8170408088        2.1355672987       -0.0317858704
  H         3.7189352278       -2.1608583427       -0.0350709995
  H         5.8536998060       -0.6405856519       -0.8548540455
  H         5.8724453348        0.9656040991       -0.0865692509
  H         5.8350289089       -0.5048000699        0.9108111612
