     510
 i =     7320, time =     3660.000, E =      -693.3169433910
  S         6.1542748388        7.1659838395        3.4495222668
  O        11.3779059916        9.0425272657        7.0517931397
  O         9.5917266794        6.0931763480       10.6043647667
  O         9.1710598168        7.6566740690        3.1770073835
  N         9.6470728817        7.9361732500        5.3749492894
  C         9.5272433787        7.4777253246        6.7131284413
  C        10.5987260084        7.9546102000        7.5373423573
  C         8.5095694669        6.5519243871        7.2087360048
  C        10.6087170366        7.6749966604        8.8865312183
  C         9.6599598004        6.6902651077        9.3558995657
  C         8.6823726621        6.0860933226        8.5097719274
  C         8.7311406014        7.8570783939        4.3342656077
  C         7.3095703691        7.9413796148        4.5656542071
  C         6.5164931828        8.5125331719        5.6086743741
  C         5.1650690126        8.2552105820        5.5301206418
  C         4.7738739943        7.5877473381        4.4070152652
  C        12.7063914413        9.3214787789        7.6495399186
  C         9.9556435360        6.8320626547       11.8439349280
  H         7.7637392117        6.0824853143        6.5317058546
  H        11.3160049176        8.1398126599        9.5158520515
  H        10.5178681760        8.3880295377        5.1917535676
  H         8.0194102574        5.3347549703        8.9272207767
  H         6.9186006942        9.0271470993        6.5917475934
  H         4.4006370586        8.5181962665        6.3161050248
  H         3.7497200683        7.3391264260        4.0248737134
  H        12.7115904377        9.9243384969        8.5766848859
  H        13.3870504398        9.8417345150        6.9673001947
  H        13.3330197878        8.3933936029        7.9561789334
  H         9.7177812596        7.9059381016       11.6536745609
  H         9.3458411106        6.4610110271       12.6930630933
  H        11.0514722975        6.6600133642       12.0360502289
  O         5.4665080288        1.9444657027        4.3184605137
  H         4.9211293145        2.6928590986        4.1746911394
  H         6.3746725009        2.2486606202        4.1455087117
  O        17.5904290405       15.1471146132        1.0815157941
  H        17.6253060581       15.1190382044        2.0428054521
  H        18.4827347041       15.3095893629        0.7805914880
  O        -2.3035048491       13.4427121994        9.5268751852
  H        -1.4886116299       13.9254429229        9.8520927908
  H        -2.3135453276       12.5964806110       10.0367749603
  O        11.4014711037        6.7970032819        1.5935583993
  H        11.0723791614        7.1203925799        2.4576697833
  H        11.9108537785        6.0311137455        1.5596639470
  O        14.5045311503        3.8091736730        7.0365350761
  H        14.5927863803        4.6755200205        7.4764638743
  H        15.3316671712        3.4043135095        7.4387394487
  O        -2.1276035502       13.0495367773        6.0774637099
  H        -2.5799903563       12.3102645863        6.5584795957
  H        -2.4904610870       13.8718735694        6.4434910252
  O        11.4514456358        3.7211190076        7.5970666526
  H        10.7452430690        3.9004227078        8.1606130235
  H        11.2540391653        2.8127725274        7.2980011874
  O        -7.6332083707       15.2450060035       16.0705297840
  H        -7.0751855764       15.8117253871       16.6144318852
  H        -8.4674102818       15.0924888526       16.5800291732
  O         8.1970068197        2.1433815267        9.5646679053
  H         8.9966691554        2.1677636605        8.9607021366
  H         8.2513619668        1.2064745827        9.8940648332
  O        -1.7620043021        4.9377275515        0.2198463507
  H        -1.0634760232        4.5718444637        0.7757406465
  H        -2.4607452002        4.2573969539        0.3200588919
  O         2.5861816717        5.9859732214       13.7775852326
  H         2.4662787066        6.7329325813       13.1387459133
  H         1.8010325851        5.7448204468       14.2967361757
  O        11.9447613741        1.6402310291       -2.4860184689
  H        11.1628720481        1.2234253585       -2.8383362135
  H        12.3175959494        1.0891194675       -1.8126857023
  O         6.5039330844        8.3082335419       12.8223399010
  H         7.2410742447        7.6689423784       12.9416444159
  H         5.7880638026        7.8156663939       12.4145657406
  O        15.5891493927        3.5185747846        3.2588035683
  H        15.6162996127        2.8778756362        2.5394085055
  H        16.1534656418        3.1525467098        3.9308301319
  O        12.1597999060       10.0530081964        4.1095416303
  H        11.0609800553       10.0762860231        4.1115670394
  H        12.3385921388       10.0197335347        3.1348526259
  O        10.4256931127       -1.7430022906        4.8622147452
  H         9.5183956667       -1.4281694298        4.5915642805
  H        10.5522449293       -2.5861813905        4.3992153881
  O         8.6256687813        9.9137967066       -3.7419846137
  H         8.9633995380       10.7122197274       -3.2952367138
  H         9.1382941908        9.1386075383       -3.4513866699
  O         9.3600458567       10.3600113441        3.8175753546
  H         9.3484617287       10.2997733214        2.7551665134
  O         3.6385708878       12.7979020998       12.2796477740
  H         4.1044648551       12.0415312115       12.5380127267
  H         3.4831558498       13.2533569974       13.1505363603
  O        11.4984541588       10.1148730345        0.9355198933
  H        11.2681385201        9.1611854909        0.6828394830
  H        10.6426897345       10.4695674369        1.3282918389
  O         3.4447279536       -5.6920891675        3.4564190052
  H         4.0598749110       -6.3850560114        3.7711366857
  H         2.5597123957       -5.8344078275        3.9059444926
  O         2.5750900205       10.8690855212        5.9638998443
  H         3.4172017321       10.5698712433        6.2551020650
  H         2.1386011611       11.0089328238        6.8284238328
  O         6.9682410009        2.4393957698       15.7164702407
  H         7.8505622208        2.0803587207       15.6453851525
  H         6.9529830968        3.4253323346       15.6128932893
  O        11.2947529974        1.3792712466        3.5099087231
  H        10.8356741691        0.5452053418        3.6657918683
  H        11.8426050975        1.4129933744        4.3157546799
  O         8.7269245683       11.7850815255       17.4824948513
  H         8.6926056512       12.4113261839       16.6910128608
  H         7.7661391283       11.4661694711       17.6509174216
  O        -6.1976706082       10.2239811142       10.9246480818
  H        -5.8971667529       10.9206814712       10.3211034780
  H        -7.1040171317       10.3320307512       11.2299386232
  O        21.4392968594        4.5171064711        8.9133390762
  H        21.8576684350        4.3855001382        8.0093539426
  H        21.6516277495        3.6542231219        9.4316107219
  O        -0.5390661786        0.0190630966       10.2844013139
  H        -0.4924071415        0.9931113450       10.3858055809
  H         0.1114644950       -0.4199216906       10.8017106858
  O         8.4732373012        0.9446049280        6.4734180993
  H         9.3671545804        1.1590640185        6.8497529666
  H         8.3656607942        0.0358681791        6.7868562570
  O        10.5053594297        8.3951880915       -2.0141968682
  H        10.2264440317        7.4078447437       -1.8934296058
  H         9.9862762675        8.9049989917       -1.3400229921
  O        13.7713690370       -1.1549508324        6.2274297959
  H        12.9004359025       -0.6497278017        6.3567955516
  H        14.2204254778       -0.5404468076        5.5974248272
  O        15.5348054004       10.2433010271        6.1348946408
  H        15.5641418759       10.5691186090        5.1924636211
  H        15.2370022508        9.3116415843        6.2635940201
  O        14.2424656086       14.5890019748        0.9142314929
  H        14.0919022206       14.0154045143        1.6600529767
  H        15.2070218267       14.7684166560        0.8686780426
  O         3.5114630359        8.3125716129        8.3772396066
  H         2.6113365054        8.7824469761        8.4152541106
  H         3.2955720979        7.5841196478        8.9391213389
  O         0.5332848725        9.0419058236        8.3225949914
  H         0.2816010026       10.0147856720        8.0526641142
  H        -0.2048690328        8.7461883035        8.8998828948
  O         4.3460361431        8.4792532773       -2.4826753524
  H         3.7089582927        8.5972143303       -3.1985585772
  H         4.8741745759        9.2846795994       -2.2654177982
  O        -0.2616281328       17.5330940557        7.1035016316
  H        -0.6382310962       17.3489179640        7.9273946438
  H        -0.1662924862       18.5268178258        7.0894729237
  O         5.9376680425       14.2119250982       12.6062888338
  H         6.1863399877       13.5019064789       13.3104616500
  H         4.9834279764       14.4516502996       12.8001891324
  O        16.1371263134        6.0911884760        4.7762818527
  H        15.7684206333        6.8299502428        4.2721801959
  H        16.3983008666        5.4588360925        4.0907403020
  O        15.3220018565        8.1292846183        2.7781658850
  H        14.4137911282        8.2685540509        3.1847753335
  H        15.2724261871        7.8589577337        1.8560166101
  O        14.6877504458       11.2078001055        1.9791592069
  H        14.4765240289       10.4557792009        1.4662017845
  H        15.3694240076       11.6316087721        1.4949405125
  O        13.7130592983       10.1545133055       16.4002706651
  H        13.0445122249       10.5370687501       16.9875818482
  H        13.7974299127        9.2555846378       16.6604268182
  O         0.6713862708        9.2997390087        3.9485665262
  H         1.0631282274        9.0613495868        4.7576838536
  H        -0.1432980167        8.8248045121        3.6459149369
  O        -1.5792930205        9.0825122538       13.2571013170
  H        -1.3664030893        8.2408478947       13.6939682452
  H        -2.5244024446        9.2231143536       13.4604007184
  O         5.0488517134       -0.1109651332       11.9654486638
  H         4.2511516795       -0.6540140576       11.6786149103
  H         5.6327355899       -0.0091886512       11.1445849628
  O         6.0707084198       -1.3126434373        7.5656212263
  H         6.1612388949       -1.5448352360        6.6160311508
  H         5.5957980446       -2.0323178431        7.9276310736
  O         5.4191816201       11.6545456756       -9.3018868288
  H         4.8879134968       11.2238843837       -8.5895528888
  H         5.4035261313       12.6141132292       -9.0809566156
  O         4.9629702837        4.4713476389        6.1015504101
  H         5.5757332322        4.7772499365        5.4010805195
  H         4.0246703884        4.5298131267        5.8475101401
  O        17.7060333405        3.3627374460        5.4967502729
  H        17.4824074449        4.2150370477        5.9276249421
  H        18.5964344471        3.1250297726        5.9013039340
  O        19.8758319388        1.4400279118        9.9278867952
  H        18.9606541796        1.0993314669       10.0116379484
  H        19.9429049439        1.7722293630        9.0074375274
  O         4.4922974281       18.4334842908       14.2360173803
  H         5.3037340975       18.9073991358       14.4805459316
  H         4.7275616828       17.9925173740       13.3788328081
  O         1.9267740253        1.3296244089       12.7334486474
  H         1.6870818900        1.8359122974       11.9334450142
  H         2.8908222153        1.3315243025       12.8445404967
  O        18.6727419832        9.3409980011       -3.9850704234
  H        18.1204702363        8.9333202733       -4.6320075190
  H        19.5624205646        9.3552562091       -4.3829042190
  O         3.0672442485       -1.8242301941       -3.1469978741
  H         2.0697328875       -1.6074940313       -3.1166893273
  H         3.3792533058       -1.1029742504       -2.5667480184
  O        -2.3680768092        3.0735111457        9.9516517634
  H        -3.1979108905        3.3342497580        9.5055618733
  H        -2.7200879311        2.5160052547       10.6701099727
  O        13.3507468301        2.7208852484       18.1996015592
  H        13.1298975080        2.6892081609       19.1918030604
  H        12.7873307808        2.0067556581       17.8623540345
  O         6.5168620588        4.8074979691       12.6751278600
  H         5.9372478157        4.3385543060       12.0261585268
  H         6.9259036731        5.5805797624       12.1695529413
  O        20.6629289355        3.8353370561        3.4296688180
  H        21.1321187684        4.5671983578        3.0262301834
  H        20.3966608724        3.4470914642        2.5664149867
  O         6.8293405275       11.4304248258        3.7550565498
  H         6.6707765584       11.4633697810        4.6929344772
  H         7.6752446659       10.8775947752        3.6707510315
  O         8.1031806625        1.8079677966       12.8210347169
  H         8.1146145971        0.8648553821       13.1315428463
  H         7.7233992015        1.6744172771       11.9405392065
  O        -3.4299195479        5.7924018661        3.2260406153
  H        -3.6126404796        5.9220803289        4.1628512760
  H        -3.0534470739        4.8512087406        3.0421167833
  O        18.7817107994        6.7768989389        5.2590836411
  H        19.0538521464        5.9784348218        5.7693634465
  H        17.8616676521        6.5950196083        4.8736199632
  O         3.6975800305       17.7526149172        0.4607915038
  H         3.0273939721       18.3167266532        0.8065652934
  H         3.4817402089       17.6869315121       -0.4923839808
  O         5.8411443840        5.8715387197       15.0770678160
  H         5.8934798098        5.7701392806       14.0680665132
  H         5.2116050263        6.6523156658       15.2598816133
  O         9.8616321527        3.3675958590       18.3045011174
  H        10.6641122715        3.5606993267       17.7653710337
  H         9.1452312715        3.9679482422       18.1462715723
  O         3.1399609436        2.4120754607        7.1094994618
  H         4.1049208162        2.4126502812        7.0756790664
  H         2.8623322019        1.5186061111        6.9204499621
  O        17.1708994611       12.1695636630        3.8977195586
  H        17.6443152972       12.4839501169        3.1580209697
  H        16.5490866909       11.4744012112        3.6910589147
  O         6.4717292422        2.0288606185        1.7652967369
  H         7.2528056993        1.4801530554        1.5671985358
  H         6.3010247105        2.6365941224        1.0272849606
  O        16.2720926811        3.0765928680       -4.6598250803
  H        16.9377809507        2.6899266751       -5.2375620546
  H        16.5263837180        4.0105604702       -4.6263919839
  O        14.1400572638        7.4053728023        0.3730059006
  H        13.4559245881        7.0024878099        0.9003386860
  H        14.5407654941        6.5796685884       -0.0493486597
  O         5.0362227058        7.7308601945        1.1711132486
  H         5.7059483930        8.1238675123        0.5824681666
  H         4.2724843157        8.3146664637        1.2761916084
  O        17.6761597371       15.6442938346       -1.9701235510
  H        17.1050759853       14.8692820659       -1.6658956342
  H        17.0213789371       16.1244923243       -2.4293834019
  O        10.8361603406        0.8131025952        8.0602605044
  H        11.7718584858        0.6912073689        8.0292327557
  H        10.6371900728        1.0257679209        8.9758015311
  O         3.0535054607       15.9000441972        6.1148606791
  H         2.4338096356       15.6002336040        5.4287031374
  H         2.8743750012       15.5272616692        7.0088978386
  O        10.4700459893       12.7777686579        3.4919532300
  H        10.0755552063       11.8339048273        3.7207521817
  H        11.0537130261       12.5569358643        2.7168076389
  O        11.2067528957       15.5179586956        2.0084855268
  H        11.4069143489       14.7072682709        1.5912334826
  H        11.2127046107       15.4001335298        2.9618198443
  O        16.5319259892        9.9908972862       15.8970252229
  H        17.3518161873        9.9471507096       15.3150451252
  H        16.3665152898        9.0319816526       15.9659723389
  O         7.3423611276       16.5668625970       10.5716693544
  H         7.5907191822       15.9191139124       11.2319417427
  H         7.3636268655       16.0735768703        9.7277345176
  O         6.0211717586       20.0660637146       10.7324151883
  H         5.7246082943       19.2382063332       11.0880825345
  H         6.8219638987       19.9465367423       10.2148476072
  O         5.5598101293       -0.7821704032        4.6269988868
  H         5.5087966812        0.1762465529        4.5431486995
  H         4.7350959375       -1.1396774720        5.0021292271
  O         9.3989381686       -1.5767956371        7.6601691408
  H         9.0054985943       -2.3448094913        8.1086069732
  H         9.8152339680       -1.9918230726        6.8422619146
  O         9.1637695897       11.0492142445        6.3296606725
  H         9.1852391950       10.2505861587        6.8350080935
  H         9.2907136781       10.8379790833        5.3525852559
  O        19.0820744814        2.8500936059        1.2566412683
  H        19.6689396391        3.3507667663        0.6499255375
  H        18.1972100985        2.6385903767        0.9470353068
  O        16.5597875333       15.3362405116        3.9720331796
  H        16.5486857197       14.4122154578        4.2989982254
  H        17.2919912238       15.8943792387        4.3262817835
  O        -3.2402744112       16.9696811038       16.4484386717
  H        -2.5200313301       17.6180601746       16.6833855921
  H        -3.3493215135       16.3510680829       17.1577796551
  O         2.1518081842        5.1151174104       -0.0302849346
  H         2.7868615504        5.7871757610       -0.1924944218
  H         1.6769278657        5.4715605924        0.7138595384
  O        12.1781895802       13.1801888317       -0.7377732029
  H        13.0851894854       13.1235704355       -0.3644567827
  H        11.8711324464       14.0538464048       -0.3606620711
  O         4.0588603170       10.4542065693       10.1986131717
  H         4.0388956566        9.5868154574        9.7548412508
  H         4.4936860918       10.4081089933       11.0855980437
  O        17.9735963202        7.5086598770       -0.4762082296
  H        18.2769703543        8.1194944661        0.2463665773
  H        18.0334603986        8.0273392815       -1.2849316952
  O        18.8681551987        6.3744315622        2.3571582356
  H        18.9782402182        6.9561242190        3.1013958796
  H        18.3769702218        5.5864950124        2.7044442568
  O        15.0995880424       11.9284132329       14.6404862137
  H        15.8189101195       11.6258618163       15.2070548850
  H        14.4248393619       11.3176489785       14.9890293668
  O         0.6314781475        3.8045050261        9.5669133984
  H         1.0738379970        4.4613979484        8.9850747019
  H        -0.1433074982        4.2433224859        9.9640960477
  O         1.2821596115        1.3159597021       15.4220062865
  H         2.0464718701        1.9278857794       15.5730129987
  H         1.5320704119        0.4885598829       14.9217689158
  O         6.8917863757       16.5001907711       16.7160341068
  H         6.5117059615       16.9681798929       15.9746235103
  H         6.3348234444       16.7454919885       17.4726738578
  O         8.6323462819       23.0800943472       -2.0238235452
  H         9.0693665413       22.3426060336       -2.4506989232
  H         7.6768739587       22.8387653151       -1.8832194263
  O        -3.8093225604       -0.3827663285        9.1151811869
  H        -3.1564523130       -0.9199253910        8.6684511683
  H        -3.4522486571       -0.3720564052       10.0549060198
  O         8.3560297074       13.5249158696       11.4435055574
  H         8.9764759857       13.2022790306       10.7871553338
  H         7.9949546620       14.3631172157       11.1616286445
  O         7.5365525553       -3.1473653659        5.7149037126
  H         7.4111513254       -3.6675709052        6.5261957114
  H         8.2835530126       -3.5716382414        5.2726915187
  O        -1.7488969509        5.9957498039       14.3242226098
  H        -1.5967116289        5.3173156263       15.0769648611
  H        -2.4379390883        6.5742229117       14.6588925461
  O         4.1746963602       -2.1497638475        0.7645206016
  H         4.5967043574       -2.4748835868        1.5681930402
  H         4.3047781882       -1.2197306483        0.5660828054
  O        -0.3900951865        6.0589193115       -5.4251522884
  H         0.3573199717        6.6963657600       -5.0975076542
  H        -1.0903749995        6.1301375391       -4.7464532931
  O         8.8044039938        3.0276020861        4.5521486689
  H         9.3082864118        2.5709017540        3.8437014791
  H         8.7328170070        2.3352634897        5.2321350884
  O        20.4416334196        4.0901094058       11.4984082266
  H        20.1934437369        3.3413293635       10.9408440789
  H        20.2835846486        3.7152037081       12.3915829693
  O         5.3060841348       13.6855558921        3.0667013529
  H         5.7641900644       13.0705619652        3.6217852441
  H         5.7443498460       14.4917713139        3.3741371905
  O         7.3662595356        4.8281101069        3.2914454779
  H         8.1489433394        4.4157805410        3.6825314860
  H         6.6135853566        4.2198600675        3.1309935418
  O         1.4908427166        9.6430499706        1.2333466734
  H         1.3256953300        9.4835242745        2.1603113881
  H         0.6164051601        9.8174553433        0.9384713898
  O         4.1781957481       13.1655129918        5.5891261898
  H         4.1205766772       12.3131974650        5.1808573262
  H         3.2674472179       13.4344774799        5.6315497297
  O        17.4663442405       12.9449959376        6.6287569972
  H        17.5945345408       12.4958079583        5.7579714427
  H        16.5788854980       12.6866461815        6.9712071538
  O        13.6531902855       13.6891409829        3.5237561471
  H        14.5408264566       13.4582878857        3.9857702118
  H        13.0138636603       13.2613971896        4.1820967834
  O        12.1200477472       13.7191264137       12.7937923084
  H        11.8088345787       13.7064489700       13.7040599839
  H        11.3803965943       13.3792875095       12.2083810360
  O        10.4201052699       19.9483040888       10.7547608324
  H        10.4556372250       20.7922973175       11.2931369628
  H        11.1369499813       19.3548296816       11.1475868828
  O        10.6956112125       16.8456584236       12.9264109273
  H        10.6484838561       16.8266523709       11.9833055237
  H         9.7302279136       16.6562949874       13.2017604728
  O        13.7171161093        7.9682641323        5.0667778678
  H        13.1454064012        7.2779912322        5.4328460277
  H        13.2125072939        8.7960468079        5.1516084174
  O         5.6934625993        6.9328765774        9.8385094501
  H         5.9456807179        7.0999125504        8.9224703043
  H         5.6140391840        5.9817011165        9.8340276402
  O        10.9073278204       11.3079465501       -2.3920300983
  H        11.0267878121       11.8950446520       -1.6068700422
  H        11.6218353921       10.6811037615       -2.3797677749
  O         2.1450108462       -2.6238475220        8.3593872890
  H         1.7653116232       -2.4639190065        9.1941630648
  H         1.6005515825       -3.3771925634        8.0516631870
  O         8.5629221074       13.4304368416       14.1459199031
  H         9.2138953006       13.7928300594       14.7705774846
  H         9.0400270626       12.8702137956       13.5352767752
  O        -0.4808014223        1.9263379899        0.3467788829
  H        -0.8977041442        1.7615569488       -0.5134500127
  H        -0.2169707914        0.9981744906        0.6891858302
  O        15.8558983355        6.1164313690        7.8189796607
  H        16.6510152253        6.6046134258        7.5543538342
  H        15.5907618699        6.2086382798        8.7538946194
  O         7.8543546383        9.7258020443       -6.9106796018
  H         7.2186578104        9.1915433253       -7.5015071838
  H         7.6028775596        9.5521432321       -5.9631963806
  O        -4.7465351128        5.5475388875        5.7546988189
  H        -4.6293149581        5.1435531974        6.6229599151
  H        -5.3407636194        4.9240420203        5.2870080383
  O         0.5787198596       12.8133566075       13.3522608403
  H         1.3457627165       13.2263762177       13.7094061330
  H         0.3415953483       12.1448021000       13.9811233549
  O        10.3005681339       15.6093134772       10.5437543689
  H         9.6495273211       15.3764522780        9.8781027545
  H        11.1353131434       15.2674866794       10.1380075276
  O         8.4263460975       12.6027030198        8.6525081530
  H         8.8207268840       11.8201803806        8.2545010955
  H         7.4864856519       12.3582903148        8.6410344493
  O        -4.0771957083       18.5252270020       11.6183114460
  H        -4.5016888957       17.6282418197       11.7085883402
  H        -3.5852323001       18.6629580828       12.4446301849
  O         8.1849943551        6.3181686194        0.9237855647
  H         9.1202181916        6.1716071285        0.7034825056
  H         8.1769130708        6.4510095637        1.9170847085
  O        10.1528808957        4.0045559241       -3.1639728421
  H         9.7049158522        3.1797618917       -3.4889323123
  H        10.9206575322        3.7071343829       -2.6080027608
  O        13.1272991297        4.8381598533       12.6788685027
  H        12.8401307178        4.5648163865       13.5816613992
  H        13.9120549222        4.3390217792       12.4050242515
  O         5.0602476496       13.1050141980       -1.6664726575
  H         5.4471547807       12.7541150563       -0.8554685921
  H         5.1827725633       14.0624059529       -1.7329453945
  O        17.4481392785       12.1488913633        9.8894941883
  H        16.5100965704       11.8472258987        9.6637083960
  H        17.7887476430       11.5802780396       10.6069726410
  O        12.6007089161       26.3524348090       12.9784109831
  H        12.2078529893       26.7545507863       12.1646541078
  H        11.9533542737       25.9184421662       13.5209449838
  O        15.4631097150        8.5303139943       -6.7002802320
  H        15.0003849457        7.7335615278       -6.3739572560
  H        15.3210379015        9.2395552450       -6.0380314394
  O         8.2222979289       14.3943467972        2.1707101505
  H         8.8986223159       13.7629458104        2.5293167386
  H         7.3336028037       14.0214056333        2.3841062224
  O        13.2633942403        1.7682014996        5.3821036286
  H        13.9397051705        1.5977648129        4.6915404474
  H        13.6124764848        2.4073224400        5.9992433781
  O         1.5870499115       14.7722082579       11.2353370784
  H         0.8548092393       14.1471932426       11.4395627187
  H         2.3387945063       14.1556395249       11.3488506259
  O        -2.9881797176       15.3574616004       11.6110683315
  H        -2.4364437580       15.1608426676       12.4324312371
  H        -3.5590916215       14.5889141881       11.5290602693
  O         2.8871946471        6.9094212979       10.7247065178
  H         2.2156470503        6.3846789870       10.2189553488
  H         3.5710440543        6.2238543475       10.8234245894
  O        -0.2301318857       12.4606213570        0.4204148424
  H         0.2581347040       13.3102838002        0.5926931104
  H         0.4305701054       11.9807030161       -0.1092993772
  O        13.2137802000        5.8020622058        9.5831854725
  H        12.7045850378        6.3138379979       10.2364615543
  H        12.6845632190        5.0483146551        9.3630129012
  O         8.5267469626        0.1600452871        2.6202328468
  H         7.8411561279        0.2648941526        3.2867355033
  H         8.3990154001       -0.6762176883        2.1153048663
  O        15.1762435543       14.9810415402       -2.6877211539
  H        14.6486809813       15.3801045459       -1.9241506245
  H        14.6497158993       14.1802715684       -2.7867352232
  O        15.8132389958        1.8614273226       -2.4457764479
  H        15.5613219899        2.6729221369       -2.9215047170
  H        16.8208903803        1.8996279135       -2.5084684048
  O        18.9753289826        5.5340828839        7.8278214417
  H        19.8315982975        5.3716654113        8.3955446604
  H        18.4908700428        6.1316566395        8.3758666357
  O         2.6838710709       10.4050856960       15.7620936946
  H         2.6809891459       11.3952477796       15.8411458051
  H         3.4256105545       10.2662258442       16.3945615017
  O         5.6755277131        1.8556037916        7.6597893469
  H         6.4682062659        2.0070271363        7.0512400597
  H         5.6988972134        0.8770773346        7.7509278917
  O        22.5922529921        4.7852316852        0.7564747536
  H        23.4549924093        5.1971349617        0.8054362238
  H        21.8830871064        5.4821807452        0.9050176442
  O        14.6678977583        0.0093943384        2.9705195743
  H        15.1771827278       -0.8227001699        3.0248674994
  H        13.7157298598       -0.3015515081        3.0739100068
  O         7.1448417161        8.9043222073       16.3452661554
  H         7.8862292279        8.9029792099       16.9836447863
  H         7.4744222778        8.6496868247       15.4781638279
  O         6.2152432049       11.5848320380       13.0310206097
  H         6.4742173711       11.1420399265       13.8774867079
  H         6.7574947145       11.1815123917       12.3276024434
  O         2.2385617825       14.2558399982       20.4205989831
  H         2.4217948736       15.2247839249       20.3922397425
  H         3.1493333579       13.8604726815       20.4218208990
  O        11.6849245964       12.3886919563        6.4408908471
  H        11.6051044195       12.6564931297        5.4623257632
  H        10.9746654571       11.7052049745        6.6823067126
  O         2.4710145346       12.6803427755       17.3806016181
  H         2.1606467721       12.9005875048       18.3016930513
  H         3.2427488931       13.2456739618       17.3116847757
  O        10.6421669231       17.6121173644        0.0997744022
  H        11.0406893689       17.1731093996        0.8912393147
  H         9.7719719460       17.7884296636        0.3547245783
  O        11.6022588553       13.2883344014        9.4411424360
  H        12.3414434989       13.6115344048        8.9252814311
  H        10.9195830980       12.9387838002        8.8419406111
  O         5.1859440591       -3.2876748108        9.6649973940
  H         4.2272456047       -3.4591376676        9.7539921629
  H         5.5089511850       -3.0890130506       10.5328949388
  O        14.5631273207       11.9757643402       11.8115282627
  H        13.7620652666       12.4288331971       12.1835157550
  H        15.3571304231       11.9845608954       12.3713855226
  O        12.3099625658       22.2985305044       15.8545610436
  H        12.2331058004       22.3759906473       16.8195414761
  H        12.4183234562       23.2172511650       15.5988042546
  O         7.8100914787       15.9732736158       13.3340682004
  H         8.1900387395       15.0336681415       13.5004163056
  H         6.8359543967       16.0101647904       13.2992159664
  O         5.2434275316       11.3597170471        1.2476130496
  H         4.2693538353       11.5494536810        1.2340249792
  H         5.4821571253       11.5484131151        2.1791867131
  O         2.0651005277       17.5076461643       20.2408792530
  H         2.0824980178       18.2688091635       19.6449417172
  H         2.9721759673       17.4016479759       20.6192330933