     510
 i =    37920, time =    18960.000, E =      -693.3748889768
  S         1.0050980419       10.5380211816       14.2424808063
  O         2.2050707986       11.3176311007        8.4971883136
  O         4.4418509936       15.5484725522        7.6487060446
  O         4.3155308398       11.1153699888       12.7956989023
  N         2.7067419048       11.6119020693       11.1217836856
  C         3.2696471702       12.5462439537       10.2860034974
  C         3.0634500699       12.4125091775        8.8473874949
  C         4.0040449426       13.6367487308       10.8551813427
  C         3.5662305854       13.4119238256        8.0067094796
  C         4.1194081011       14.5871898976        8.6103485419
  C         4.4031883431       14.6702754508        9.9546821147
  C         2.9435737419       11.3689018730       12.5306453843
  C         1.9744905453       10.1881044248       12.8726508414
  C         1.5653294879        8.9917125637       12.2982603680
  C         0.4678464035        8.4036844976       12.9795628083
  C         0.0190658035        9.1177930768       14.0986220152
  C         2.1833674122       10.9733649679        7.0806448774
  C         4.5095645220       16.9108248505        8.1670070306
  H         4.1828453330       13.5776495029       11.9417323667
  H         3.2478435232       13.5182675031        6.9102504414
  H         2.3455495255       10.7885135223       10.6609311245
  H         4.9531823782       15.5217122741       10.4440176454
  H         2.0661712775        8.5859339529       11.4537948039
  H        -0.0301108637        7.4623780496       12.7300968565
  H        -0.7057273499        8.8347926096       14.8723313098
  H         1.8290122746       11.7843021337        6.5016420309
  H         1.5045025200       10.1256200105        6.8913231604
  H         3.1415738271       10.7542162787        6.6134038397
  H         4.4140464633       17.6436327181        7.3256867202
  H         3.6330480066       17.1236097352        8.8974419439
  H         5.4669492800       17.0465879948        8.7774488721
  O        -4.7129108187       -6.8474506612        1.7064088783
  H        -5.6321442324       -6.5064159949        2.0595318837
  H        -4.3085057176       -5.9684398105        1.4402550811
  O         5.6656917115        3.9767940603       18.8153847993
  H         5.6124183640        4.6010591814        1.0259500474
  H         6.5277992396        3.5212531103       18.7313457917
  O        -1.2037238963       12.9361124861        5.1480349018
  H        -1.4601694314       12.5007019009        5.9892698071
  H        -0.3637296625       13.3838296694        5.3056578853
  O        15.9290289313       -2.7033991813      -18.5347439045
  H        16.8577204869       -2.8371291083      -18.6337308744
  H        15.5749374811       -3.0643130294      -19.3537872929
  O         9.8883917247        1.7607219159       -0.3291835001
  H         9.8531663974        1.0215681435       -0.9574627032
  H        10.7654870149        2.1457530318       -0.3090418207
  O        15.4383017895       -0.0521188998       -0.0415255435
  H        15.5175171803       -0.8770257034       -0.6007329755
  H        15.7498693554        0.7035100846       -0.5399047796
  O        14.8432159975       -6.6455645915        3.9294138304
  H        13.8354529788       -6.5808826438        3.9879594573
  H        15.1395879492       -5.7367571182        4.0504731267
  O         2.0012971158        5.1251695664       13.0199405867
  H         1.2449155066        5.5608775281       13.5167925018
  H         2.7283210239        5.7626509448       13.1116091839
  O         2.1009255614       -0.7621580997        0.9072340869
  H         1.4575775604       -1.1294741703        1.5212710820
  H         2.5200248777       -0.0422834042        1.3905570548
  O        -2.2509923855       -0.0706100579        6.9796201135
  H        -2.8275093862       -0.7918430524        6.7965892528
  H        -2.4901564916        0.0313260447        7.9072391520
  O         4.4898470795       11.9921647982       17.6740176354
  H         5.1103170758       11.2147302205       17.7259699743
  H         3.5597846400       11.7305595378       17.4509960766
  O        10.9729437623       -1.0175809212       11.6131159839
  H        10.6253933011       -0.1769204054       11.3786025228
  H        11.0581272453       -1.5143698057       10.7642960973
  O        -0.8897613084        2.5438528838       12.4638775392
  H        -0.8613682737        1.9851384801       13.2371263004
  H        -1.2808046201        1.9566945477       11.7911252866
  O         4.5351249367        8.8158654130       11.6373896260
  H         4.4789097298        9.7503083092       12.0120645242
  H         4.9747740529        8.8970315542       10.7788890293
  O         9.6579346393       10.7616483223       19.5488026055
  H         9.4615035851       10.0601672071       20.1954213382
  H         8.8330817378       10.8283188756       18.9876211794
  O         0.7770631097       16.0317696386        4.2252846116
  H         0.2755366415       15.9148851149        5.0434471511
  H         0.3875732372       15.6931230732        3.3849586670
  O         3.3159800153       16.9607888143       22.3090167992
  H         3.6678985087       16.0909652698       22.6070283225
  H         2.7264904674       16.8676425817       21.5585311812
  O        16.3207751181       11.9459931100       27.3875381963
  H        15.3541161828       11.7591077124       10.4045403988
  H        16.6313971931       11.5050731636       26.5677318616
  O        -1.4403604390       21.7393888930        6.7745354440
  H        14.9696906900       22.3883834882        6.2396518519
  H        -1.3150836973       21.0009058280        6.1907777663
  O        16.7339576603       15.1076504106       18.7686034542
  H        16.2755896269       15.9078323020       18.3483984694
  H        16.9104304531       14.4915827722       18.0482515130
  O         3.4169441691        8.6498118601        4.0468652702
  H         2.8166931557        8.5450572098        3.2660898109
  H         3.7539706389        9.5667995229        4.0792528105
  O         9.5491963626       -4.2114079812       -0.3898976696
  H         9.9901515478       -4.2907546861        0.4413999362
  H         8.9317087247       -3.4641934157       -0.3804230779
  O        13.8980841959        6.8752245171       -9.6532063758
  H        14.1779880421        6.4692783951       -8.8171674653
  H        13.1604439171        7.4890009055       -9.4198713231
  O        -2.7382154891        5.0042268333        9.7521609122
  H        -1.7889802515        5.2035276817        9.8496033022
  H        -2.7098292199        4.2245307248        9.2033929816
  O         6.9781080949       -2.0310711589       11.7660152292
  H         7.2060924691       -2.8574754031       11.4182858258
  H         6.4339953006       14.8824455939       12.5375566539
  O        14.2297069754       11.0345251962        8.1548503626
  H        14.7040402573       10.9895552752        7.2914953695
  H        13.4073644766       10.4886517282        8.0994824227
  O        18.6737675242       14.4470550538       15.3414279361
  H        19.1789286135       15.1911045881       15.5349687392
  H        18.7505545745       14.1723952734       14.4112861201
  O         5.6808312385       18.2679924213        3.7544611695
  H         5.3575787502       17.3402220143        3.8384383335
  H         6.1590484957       18.3967290526        4.6083778486
  O         5.6042975671       10.1060597039       26.2039981913
  H        23.1384868728       10.9450831776       26.1953809366
  H        21.7228736139       10.4615796901       25.9039350424
  O         3.1988481597       24.6564139832       15.4557595236
  H         3.5618142621       23.7821627549       15.2594013747
  H         2.8582041881       24.9621268879       14.6553368307
  O         8.7875195108       20.8810203474       20.6320752905
  H         9.4674940710       20.3254402340       20.1314330386
  H         8.1971301463       20.2583391708       21.0910622596
  O        19.3678420217        1.9258667559       -4.5887376910
  H        19.2533417916        1.0515795790       -4.3192409145
  H        18.5056719205        2.3381589994       -4.3065595726
  O         8.0575501667       -1.9446418876       17.1773905036
  H         7.9148080360       -1.2909569973       16.4669763467
  H         8.2200421803       -1.4508150405       17.9938763201
  O        16.6531893610       16.4330973459       10.1902511130
  H        -0.3166277934       16.3808954550        9.2465113992
  H        17.5676064950       16.3958266064       10.5123446197
  O        -4.8483231223        3.9538175627        4.8608481347
  H        -5.4411914835        3.5494225321        4.1794732846
  H        -4.1802258346        4.5370843371        4.4531061740
  O        13.0895589716        3.4501633050       12.8316629795
  H        13.5100557891        2.9433067021       12.1159066701
  H        13.2658417923        4.3977344248       12.7668617473
  O        11.5614241232        4.2300697233       19.0883539226
  H        10.8992466368        4.4922760590       18.3999623950
  H        12.4414979120        4.5079431028       18.7682022062
  O        11.8609127059       12.8856897267       22.0891429314
  H        12.7393966224       13.2218221919       22.1410316534
  H        11.5205501539       12.8293820146       23.0106591827
  O         4.7249646660        0.7851853815       11.5410534365
  H       -13.1082508551        0.9302542484       11.0817439306
  H         4.6470208446       -0.1039626439       11.9016143052
  O        13.5059592758       13.1870300586       16.4888374276
  H        14.1698740308       13.7320507512       16.0410562662
  H        12.6392050440       13.4669317519       16.0934271610
  O        10.4572016298        6.5204268795        3.9378028841
  H        10.1554588160        5.6140229014        3.6633331950
  H        11.3861459114        6.5575045915        3.7481011801
  O        12.3772353715        9.8137908165        4.7546909920
  H        11.8162493838        9.6685876066        5.5576945527
  H        12.2453432243        9.0329645744        4.1921589642
  O        23.0922922473       11.4815895331        6.3287294003
  H        23.0817607476       10.6118552363        6.7832472262
  H        23.7436322576       11.4308521050       22.6474699531
  O        -6.0113918427       23.0928548837        6.7090981928
  H        -6.6566080482       22.4577326530        6.1988740553
  H        -5.4283625933       23.4092003854        5.9880320868
  O         2.6977874853        4.8743128286        9.7063720916
  H         2.8778707717        5.4157757320        8.9151012907
  H         3.4742833484        4.2769053642        9.6697872412
  O        11.2327766287       -1.7457343903       18.9772153055
  H        12.2077086648       -1.6630702308        1.8989234354
  H        10.8464015410       -1.7857809270        1.0833601630
  O         7.8870576299       -0.5122301565       19.5649740206
  H         8.0246610551       -1.4133158042       19.9333867450
  H         7.0129293782       -0.1291993225       19.7368819856
  O        18.4024493958        9.1034033246       18.8219085906
  H        17.9735821146        9.9640607329       18.9769413603
  H        18.8257990698        9.0487818065       18.0069557189
  O         8.6592757224        5.8514054042        1.3256927707
  H         8.6599718606        5.2800819692        2.0720183545
  H         8.2817544857        5.3981789667        0.5507516926
  O        14.1187599451        5.3029526752        1.0904835636
  H        13.7540104522        6.2157786461        1.1865055108
  H        14.6815649617        4.9356805160        1.7754460983
  O        12.2458629988        0.6288543034       21.5105770157
  H        12.2324474606        0.9391228814       20.5855797203
  H        11.7520549221       -0.2013373112       21.5562607402
  O        10.6137963110        2.1851724319       -3.7423355742
  H        11.0509069113        1.3026932769       -3.6456934915
  H        11.2219481104        2.7079033640       -4.2991826494
  O        22.0484835499        1.5237648486        0.8018544568
  H        22.5709578076        0.8985918773        1.3614766600
  H        21.9608610894        2.4177983431        1.2666228776
  O         5.0110445453       22.5184140865        7.8556668641
  H         4.3999064082       22.5396069846        7.0507708852
  H         5.4841192315       23.3815047271        7.8002420465
  O        10.9367383293       -5.0366625368       -3.5770463374
  H        10.9851602879       -5.8603668930       -3.0526484689
  H        10.2571343153       -4.4971600248       -3.1695378033
  O        13.1767054715       -9.9822443412        4.4660674131
  H        13.4619940584       -9.7879786652        5.3548856653
  H        13.7871024794      -10.6362965142        4.0780957896
  O         4.1301268586        3.0581516179       23.2775326948
  H         3.4225064703        3.3368811168       23.9340513082
  H         3.7072330748        2.5370038543       22.5809951617
  O         9.2286434336        7.3125635014       -1.3278164208
  H         9.2528369405       -9.7835590704       -0.3483448306
  H         9.5126398539        6.4486326974       -1.7614638455
  O         2.6531122204        7.8787368992        7.9894293589
  H         3.5504702361        8.1869012392        7.8261553894
  H         2.7720173857        7.1213392581        8.5905203888
  O        12.4033042608        6.5752624391       10.9713439310
  H        12.1539260881        6.0601578229       10.1997417754
  H        13.0467247976        7.2275226294       10.6341063571
  O        14.8524375398        4.3060683017        3.8870108916
  H        15.7248205501        4.5936132079        3.5721666370
  H        15.0718833205        3.4885490232        4.3395906674
  O        16.2023244516        2.9713230018       16.2841894993
  H        16.2854991349        3.6156398967       15.5529545359
  H        15.8405670016        3.4448121393       17.0255766786
  O        -1.0077048307        2.5731157439       -8.1344586863
  H        -1.7062626997        2.4290926410       -7.4140462109
  H        -1.2523043973        3.1683049424       -8.8588654243
  O         8.4750740219       15.9217406681       -7.6117999749
  H         8.1088598667       15.0025437419       -7.8055815191
  H         7.9027975494       16.3063268746       -6.9575369741
  O         1.7670557351        4.3071723672        7.1735228496
  H         1.6609531761        4.8263010176        6.3164057052
  H         1.0027138465        4.5690702494        7.6957919021
  O         8.2749237179       13.3799623965       13.9717330648
  H         8.0230363380       12.9970672408       13.1306770640
  H         7.5914493182       13.1220131961       14.6354842455
  O         4.8099063420       15.3217296031       16.0406744997
  H         5.6859200909       15.6994341165       16.2358015775
  H         4.8683954626       14.4833370178       16.5490360452
  O         7.1509483144       -3.2464461629        8.2178256602
  H         6.4279376311       14.2208703668        7.8069309750
  H         6.7049630965       -4.1255086067        8.3583423600
  O        18.5696362539       12.2285754851       16.9203950091
  H        18.9004979373       13.0669830638       16.5685932209
  H        17.6641699651       12.2428065994       16.6000338012
  O        17.1651213099       14.8025504646        6.9256362142
  H        16.5150793703       14.6226725501        7.5599985918
  H        17.9765701830       14.5867067304        7.3323359283
  O         4.7257760526       22.4185878335       -1.5497778261
  H         5.3809625494       23.0953160238       -1.2813121865
  H         4.7211948060       21.8245927613       -0.7923508851
  O         0.9829750033        1.3403787876        6.7242713221
  H         1.9243373313        1.1658637876        6.6568889607
  H         0.9644172651        2.2396662973        7.1392166429
  O        14.2370747838        8.7735176137       11.3650978486
  H        15.1710311122        8.6400965116       11.1399320173
  H        14.0838587441        9.0020245284       12.3023865329
  O        -8.5261045705       11.2680347912        8.6996097649
  H        -8.4135933049       10.3667729600        8.9947765109
  H        -8.2125346490       11.2951220991        7.7704745969
  O         1.5182850756        3.8154755974       21.1525115112
  H         1.4171026886        4.6414258893       20.6646604159
  H         2.4554666750        3.8226793726       21.3016811347
  O         2.3388042523        1.7392687045        2.3092947890
  H         1.5112799360        2.2472308679        2.3368585719
  H         2.7717989047        1.9328387027        1.4150374265
  O        10.0961353853       16.2157450067        5.9879827071
  H        10.7261554821       15.6799071154        6.4968216911
  H         9.2292211277       15.8535583901       23.1218453995
  O         6.6895220910        3.1899445701        5.7614575490
  H        23.9653441413        2.5629783870        6.4399708339
  H         5.7270088209        3.4330456787        5.9972103253
  O        13.5413693897        0.1126654543       -2.9149179620
  H        14.3432091877       -0.4130318989       -2.9906751077
  H        13.4251631926        0.4196275806       -1.9801877081
  O         0.7083896898        6.6088343690       -0.5125002664
  H        16.8491817044        6.1801100875       -0.3513179372
  H         0.7692983685        6.6865403079       -1.4840582710
  O         7.5760055615        1.3147945978       13.1080289746
  H         8.3564475653        1.7649607190       12.8826740294
  H         6.9148354433        1.4201177181       12.3793663965
  O        -6.6881060151        4.8945075840        9.2882885623
  H        10.8728524545        5.2718547921        8.6225178292
  H        -7.5555177312        4.9236455747        8.8888190396
  O         6.4396969877       12.3502419212       11.7094923553
  H         6.5765481554       11.5157331051       11.1615455343
  H         5.5865328506       12.0676464919       12.2330879983
  O        19.8101189900       22.5625816882       18.1483194283
  H         2.7410032192       23.0018124767       17.2277688944
  H        19.9360932640       23.3665475237        1.6961675143
  O        14.1890282908       -3.3542138559        7.5831673788
  H        13.7946609770       -2.8626001331        8.2799807092
  H        13.7267580469       -4.2161222001        7.6759002929
  O         7.3145627565       14.4352639064       22.1815023907
  H         6.8610428751       15.1007197469       22.6902987181
  H         6.6738064201       13.7149965574       22.1012466037
  O        19.5083459111       18.7714613545       -7.2458639877
  H        18.7842801835       18.8434447012       -7.9229305872
  H        19.1477041980       19.3494499702       10.4920620681
  O         7.0336666363       -4.1759722116       18.3739343550
  H         7.7299710166       -4.0262801511       19.0129819786
  H         6.6439885512       -3.3386908632       18.0440987913
  O         6.9391265044       17.4148356188       16.0097217190
  H         6.9887119237       17.8928322553       15.1469506309
  H         6.1555724768       17.7955219144       16.5660553181
  O        12.6793679756       19.9048620108        7.4404734747
  H        11.8949224649       20.4741385181        7.2475788522
  H        12.8763709500       19.6255656690        6.4990228078
  O         4.0163433247       22.3820305628        4.3643465313
  H         4.3746546063       21.8409625897        3.6474298563
  H         4.7627679335        5.9848359618        4.6040032457
  O         8.3604242410        5.4396895586        7.4400478942
  H         7.8142083900        5.7653546456        8.1545773497
  H         7.8497058999        4.6595941491        7.1309655118
  O        12.2766101342        6.2588566308       -3.3515462448
  H        12.1518604393        6.4312453973       -4.3368549371
  H        13.1088946472        6.7297079584       -3.1730439872
  O         7.2527656977       -7.0693403888       -3.9857037838
  H         7.5340434110       -6.9315240635       -3.1057243793
  H         6.2942797284       -7.2083173238       -3.9751791971
  O         9.4818732204       16.1732195911       -2.4930441309
  H         8.7341746324       16.7675219095       -2.6855673948
  H         9.1815658002       15.2570331992       -2.6411253979
  O        -2.9691795042       15.2230323926        3.4064548973
  H        -2.7147718885       16.1886495853        3.5233509646
  H        -2.8876150759       14.7074458043        4.2264928721
  O         6.6325066999        6.0295480154        4.7995825209
  H         6.8313058231        5.1900652462        5.1536821706
  H         7.5028769018        6.4361336799        4.5478563250
  O         2.5392147381       12.4724286446       13.4606660931
  H         3.2280910520       12.3822448217       14.1498107380
  O         7.4964446326        4.5777981195       -3.8599098133
  H         6.8890621800        5.1388815839       -3.3731581367
  H         6.9508859483        3.9481056662       -4.4186401403
  O         9.7243296580        1.6965664501        9.6999384629
  H         9.6442685742        2.6249341269        9.4359386119
  H        25.8512053482        1.3320007494        9.4172084228
  O        22.0566021674       20.3368653524       12.6478022561
  H        21.6401894270       19.4635658101       12.4070937931
  H        22.0541613793       20.4473171130       13.6606644565
  O        21.2837218224        1.4245230130       14.9068371590
  H        20.8818941730        1.3894421292       15.8165329651
  H         4.5294691424        2.3368998497       14.7767421312
  O         6.6345570083        3.0487534929        8.7166582634
  H         6.7101817786        3.8384925767        9.2490380082
  H         5.7630369834        2.8351670559        8.4908332495
  O         4.5770515907       15.8755371099        2.7263380367
  H         4.0727535547       15.0822023106        2.6030064464
  H         3.9854083790       16.5869496741        2.4336045004
  O        15.8590726571        1.4454504754        2.4268075975
  H        16.6937436434        1.2288302923        2.0172994448
  H        16.0543151791        1.5721110490        3.3661613939
  O        -4.0705387005        0.8007345271       18.2067987835
  H        -3.1183185056        0.5098496556       18.1276005091
  H        -3.9434676472       18.7534620597       18.4556172750
  O        19.2451414702       19.8591354596       -0.3229367025
  H         2.2646670130       20.7461373836       -0.7967364683
  H        18.3580134520       19.8969549409       -0.0304314761
  O        -0.6351121665        8.0963189496        8.8938193589
  H        16.1518902811        7.5377415506        8.1699696500
  H         0.1621989608        8.5487486732        8.5681606765
  O        10.2716141251        4.8892666133       -2.2573178165
  H        11.1904710056        5.0938555034       -2.4867673323
  H         9.8862584297        4.6605193497       -3.1601283133
  O         7.7591677998        3.7695368563       16.7063044060
  H         8.5200105335        3.1726009463       16.7071380951
  H         7.2843529136        3.8108621383       15.8353731941
  O         7.9638271040       10.6829796211       -0.1671640105
  H        25.6125833350       11.3156075946       -0.6097737687
  H         7.4851186685       11.2437280576        0.4983988794
  O         9.3864523049       -3.0967724119        3.4949909242
  H        10.1749663917       -2.6011412699        3.2108268712
  H         9.0101608212       -2.6105283176        4.2668807588
  O        10.1468911439        1.4766130041        2.6881553682
  H        10.1841517707        1.5039214268        1.6600612814
  H         9.5285096710        0.6586748360        2.8869365647
  O        14.6559669439       12.5230642641       13.7477282859
  H        13.7930649170       12.6202979267       13.2795586240
  H        15.2849939927       12.0466678582       13.1518711740
  O        18.3226676463       15.4438180127       12.2017285529
  H        18.3926209506       14.7882813870       11.4699855954
  H        18.9507646968       15.1136968526       12.8975102497
  O        17.5306682372       11.7964587209        2.6675187996
  H        17.9075649556       12.1465789312        1.8518763310
  H        16.6615486312       12.2472696505        2.7866279143
  O        24.5443120689        8.6535309387       18.8500239731
  H        24.3318000772        7.8338620188       18.3776763904
  H        25.2179313685        8.3212672589       19.4145650432
  O        14.5190005840       -4.5944869209       19.0764140354
  H        14.6026403933       -4.2222598120       18.2095334798
  H        14.3251130794       -3.8010903315       19.6451556734
  O         0.8238687334       17.9084077573       14.8690562762
  H         0.0003118969       18.0950141235       15.3569337951
  H         1.5510392015       18.3066315810       -1.5626596688
  O        18.7707759965        7.1663800267        5.4639824730
  H        18.8457163663        7.6399077271        6.2968723914
  H        18.8575671893        7.7697515182        4.6920010787
  O        -4.8550871888       14.7618333610       -2.3146255815
  H        -3.9332752579       14.8863249247       -2.6931007206
  H        -5.3726191313       15.5634736598       -2.6309874682
  O         8.5802450843        8.8260141948        4.7293804334
  H         8.8068909201        9.1788903256        5.6279629907
  H         9.1667809737        8.1848573105        4.3470455275
  O         4.8826422100       10.2325255467       15.2058892956
  H         4.8428192410       10.6011861115       14.2573823257
  H         3.9908352129       10.0424393067       15.4397077775
  O        12.1983485522        9.2023804664       -7.7277123160
  H        11.4656400042        9.6514748887       -7.2655578714
  H        12.8265209632        9.0241728572       -7.0175413195
  O        -7.7042255962       23.4479250908       28.8465773076
  H        -8.5085276817       23.6488241184       29.2888750714
  H        -7.7660377277       22.6167587018       28.3802502901
  O        -1.2241924238       15.9198920596       -4.1575600222
  H        -0.5065065290       15.3107569876       -4.3403038693
  H        -0.8483067376       16.7952480487       -4.3768537817
  O         9.7729992340       13.1548833463       10.6392923711
  H         9.5578234903       13.9082271121       11.1862128705
  H         9.0415070543       12.4878365750       10.6630539381
  O         3.7330372300       -1.0067942641       13.5620677999
  H         3.5230003017       -0.1680809282       13.9404044005
  H         4.1538567051       -1.5293380638       14.2882135177
  O        13.5856298628        9.4068270144       -2.8754747270
  H        14.4145604181        9.7854005730       -2.6215792176
  H        12.9192473207        9.1685138299       -2.1599289690
  O        23.0177934401        4.9134545704       10.5686686704
  H        22.7243618692        4.4079323570       11.3312939054
  H        23.0849851632        5.8151909798       10.9180403129
  O        10.0724237433       19.0809397369        6.2777289550
  H        10.1806499097       18.4011982007        5.5818915917
  H        10.9357948751       19.0722342761        6.7114539399
  O        14.8404977592        7.0775527920       -1.5194232177
  H        14.6215207421        7.6787389427       -0.7637427822
  H        14.0448842094        6.4388085660       -1.5207304324
  O        14.1926803321        7.9847240693       18.5999727221
  H        13.8394587263        8.7303696179       19.2186856331
  H        15.0773499175        7.7859091007       19.0459764336
  O        -1.0345939966       18.9552761037        5.1255274532
  H        -0.2269638888       18.6536155633        5.6423193304
  H        -1.7665445107       18.3816406700        5.4720709194
  O        15.0403339404       10.4272784266       16.6237292621
  H        14.7201130714       11.3806780791       16.6826483016
  H        -1.9632071276       10.0256470127       17.5607388411
  O         8.7423402669       11.4314879645       22.5651557639
  H         8.5342186723       12.3747269924       22.5379214666
  H         9.2115934483       11.2094933897       21.7295821143
  O        13.7299565870       14.5875764719       10.5294058027
  H        14.6867108739       14.7103894375       10.7673354711
  H        13.3005189670       14.1987485154       11.3240039420
  O        10.8061358215       26.5607888694       15.0130210090
  H        10.3596878274       26.9122624303       15.8310391904
  H        10.0976528326       26.0335287675       14.5554300255
  O        -4.1473674928       11.4453787792       11.4806028474
  H        -4.4750917544       11.9294978307       10.6866906837
  H        -5.0232886291       11.1842417680       11.9248094008
  O        13.0871985729       20.8631694203       -1.2283901404
  H        13.0177838463       21.7631815702       -0.8946205608
  H        12.6353001974       20.6725085274       -2.0491585948
  O        -0.5559797573        4.7578105436       13.8650250169
  H        -0.6610148380        4.3129612276       13.0152106213
  H        -1.4727040816        4.8003057094       14.1852542881
  O         5.2051074033        8.1887145169       23.4933580480
  H         4.4769716062        7.9659846943       22.8825776342
  H         5.9219067823        7.6200367018       23.0876118103
  O         2.9032224511       -3.4096656461        5.0354541863
  H         3.4726624239       -3.8515690851        4.3485127023
  H         2.0906256748       13.8935621390        4.6540244176
  O        -0.0392611685       22.0483363838       -6.2879208578
  H         0.2198726231       22.8911109042       -5.8832448077
  H         0.8271030149       21.6511810534       -6.6477994087
  O         6.1429275746       10.1611395713       20.5488169259
  H         6.2407623384        9.2833912820       20.9634748307
  H         6.4246641440       10.0224253485       19.6304873527
  O         6.1153820098       23.9002509213       12.9200270051
  H         6.7294412236       24.5814960196       12.9410726570
  H         5.3946095658       24.2329488770       12.3499978702
  O         5.7982923694       12.8894677018       -1.5637131562
  H         6.0771138353       12.2087528620       16.0656375832
  H         5.2182196998       12.3703244091       -2.1703268272
  O        15.9599128620       -8.6627571585        5.5053986360
  H        15.5018301248       -7.8285527034        5.3136110006
  H        16.2466786432       -8.9431867554        4.6064608397
  O         9.8446400570        9.1740186976       -5.9921189493
  H         9.6169085464        9.5277658251       -5.1719641194
  H        10.1115704563        8.2745598936       -5.7928449807
  O         7.2472279916        7.6499362911        8.8078715942
  H         7.4129140515        8.0770905681        9.6678914974
  H         6.9261844238        8.3747741214        8.2678673713
  O        22.1846057661       12.7964273838       20.6192016815
  H        22.5866059246       11.9136047949       20.8029900292
  H        22.6082194301       13.3451183586       19.9076905482
  O        10.1287508080       -8.0659418425        7.3868702338
  H        10.1491045000       -9.0335667520        7.3614170310
  H        10.9867910902       -7.8665084490        7.8133514528
  O        12.0764560866        7.3325525746       -0.3338621116
  H        12.3759618157        8.2145284684        0.0104929841
  H        11.3805638297        7.5387635831       -0.9567412127
  O        11.6036130278       -3.9400298002        8.3754344063
  H        10.7831151364       -4.0395450785        8.9407520226
  H        11.9399742536       -3.0418740897        8.7110518246
  O         7.4708797344        0.7023818913        6.7565559393
  H         8.1880810720        1.3483751195        6.6803575180
  H         7.4045626645        0.3604872984        7.6686097497
  O         4.3660963216        8.5419617510       17.9143726534
  H         5.2525385769        8.5710172855       17.5539911020
  H         3.8088228956        8.5156499650       17.1536407960
  O         6.3948425662        7.6266711311       -1.1486115034
  H         7.3183123360        7.7700812700       -1.0306856634
  H         6.1466990144        8.2035945487       -1.8947527065
  O        13.2643300210        1.5171532090       10.1945810703
  H        12.7564729134        1.9795827478        9.5524180842
  H        12.7964498376        0.8067334718       10.6756366084
  O        16.7153013613        6.8594889852        2.8439788385
  H        17.2343083893        7.7007799216        2.7032099232
  H        16.7063613949        6.3517788369        1.9972787643
  O        11.1814450387       -0.7528393637        8.4927473378
  H        10.3388204530       -1.0984820341        8.7779459213
  H        11.1507538386        0.2371668489        8.6655082090
