     482
 i =     4115, time =     2057.500, E =     -2727.2413195381
  O         0.5404103280        0.5187454491       -3.6762252871
  N        -1.2917322686        0.9060479958       -2.1945679900
  C        -0.1876469734        2.6895979668       -3.3485269026
  C        -1.6270786653       -0.3366018969       -1.7029182461
  C        -0.2360670282        1.2762828543       -3.0027464044
  C        -1.2796513292        3.5994064907       -3.3873148295
  C         0.9652362586        3.0700249736       -3.9934738506
  C        -1.0779470230       -1.5221221916       -2.2283640653
  C        -2.2393570604       -0.4867979138       -0.4958084160
  C        -1.1522330074        4.8856684027       -3.8908287639
  C         1.1237911421        4.3536339202       -4.5272424267
  C        -2.5569270482       -1.8279790782        0.0470024914
  C         0.1051842150        5.2320029607       -4.5071396572
  H        -1.9484829046        1.6977282383       -1.8817673070
  H        -2.2338637964        3.2937117132       -3.0565320425
  H         1.7256982285        2.3249421583       -4.1353256824
  H        -0.7389925804       -1.4449948420       -3.2828470112
  H        -2.6506373264        0.3815975916        0.1156088859
  H        -1.8664455688        5.6424954234       -3.9924025480
  H         2.1882283382        4.5476624872       -4.7810818410
  H        -3.1963240535       -1.9559652626        0.9235363732
  H         0.1348654025        6.2948524188       -4.8336563926
  O        -3.2576259475       -0.2797068625        3.4529879386
  H        -3.5838454955        0.1651771803        2.6317045206
  H        -3.6583600062       -1.2081052602        3.3886390711
  O         1.6182301400        7.8587674081       -2.4746228569
  H         1.7935153490        8.3503850831       -1.6311183644
  H         1.5077985733        8.5669805406       -3.1436550182
  H         2.5195880313       -2.1972164554       -4.2127354112
  O        -7.8256432907        4.5655558494        4.3116877981
  H        -8.4460454319        4.0573867332        4.8552087660
  H        -7.7956899042        5.3969910386        4.8789554811
  H        -5.2477128170        4.9232047070        8.1906923535
  H        -6.4995682353        4.2276583976        8.6978206261
  O         0.2333865593        4.5240273316        7.8946237060
  H        -0.1868188749        4.3141060196        7.0386397297
  O        -8.1410354856        4.2484297350        7.7561084215
  H         8.4116582799        4.6413538678        8.1414940500
  H        -8.3025023697        3.3844105633        7.3877431302
  O         5.7006260677        0.1320984888        8.6960611641
  H         5.0873769418        0.8789878913        8.5122862604
  O         1.2327167943       -0.7590468064        3.8106148767
  H         1.4765670530       -0.4333853366        2.8767545928
  H         2.0717003915       -0.6812308614        4.3664554462
  O         6.5846344504        0.5720913734        0.8577824032
  H         6.3722930833       -0.2402597515        1.3809137938
  H         6.5695263567        0.3597714394       -0.1223607102
  O        -2.8393639148        5.3519433182       -0.4746093039
  H        -1.9559622198        5.6704500334       -0.7820033669
  H        -2.7406455254        5.3204449940        0.5705190444
  O         4.0552791090        2.3330610168       -2.3382038298
  H         3.9721728099        2.8909891287       -3.1224389438
  H         3.1897704438        2.2446490089       -1.9353008011
  H         6.5251596054        6.0413378737        8.3762297224
  O         6.3063002865        0.5245144579       -3.4610510584
  H         6.3373417832       -0.4335575656       -3.2645907243
  H         5.6761212971        0.9416744926       -2.8758894011
  H         8.3893408723        0.6781005509        7.7340571965
  O        -0.1762331344        2.3074876899        0.7900593886
  H         0.0447887845        2.6853879951        1.7018139586
  H        -0.9308447376        2.7982401779        0.3763143032
  O        -3.0159117893        2.6585461013       -0.7870171321
  H        -3.0426263520        3.5994955120       -0.5814244018
  H        -3.7127808603        2.2857271380       -0.2290445723
  O        -5.4483363349        0.6899190230        4.9926022840
  H        -5.3061919700        1.6780610632        4.7402671425
  H        -4.6287749214        0.3000561408        4.5959973294
  O         7.5885865723        7.4941279314        0.5631110715
  H         8.3034117522        8.2077897839        0.6006376838
  H         7.7935983928        6.7476579479       -0.0817538868
  O         4.7787746632        5.1346884503       -1.2193088465
  H         4.5744908763        4.2312369506       -1.3890058322
  H         4.1793540260        5.5184748009       -0.5277582963
  H         6.0823178133       -2.2863882338        0.3164944738
  O        -4.3791511375        1.4105296012        1.4975908359
  H        -5.0980367643        0.9694512464        0.9407155017
  H        -4.9110033876        1.9720944977        2.0847161816
  O        -8.0678532507        1.2954942991        1.3544211679
  H        -7.4073840356        0.6858870171        0.8870240203
  H        -8.9998380630        0.9415512367        1.1196387711
  O        -8.0899949264        0.7252388043        3.9881804900
  H        -7.1525016490        0.5233163483        4.2212503787
  H        -8.0198787892        1.0708413690        3.0513594040
  O         6.2368775283        5.2054993461       -6.0922924940
  H         5.5939087843        4.5440485140       -5.6848466606
  H         7.0643750806        5.1758185785       -5.4920198328
  O         1.9143857003        5.5452427072        2.8216936199
  H         2.7514412366        5.6401120132        3.4029189657
  H         1.5838858531        6.4736649599        2.6225096281
  O        -1.0648448894        8.2246138460        1.2502817298
  H        -0.9473078845        7.9178311286        0.3344384912
  H        -1.5445871431        9.0800456527        1.1603678276
  O         1.0517533792        8.2094609004        2.7512713692
  H         0.1341242760        8.2868108404        2.3471320732
  H         0.9073045029        8.2694085083        3.7302408649
  O         5.9495794766       -2.2854407070       -3.0535575989
  H         6.8622949097       -2.5450448050       -3.3012045376
  H         5.8925640954       -2.3270053979       -2.0728070649
  H        -5.6964125695       -2.5807612465       -5.4296674263
  H         3.1694124843       -2.2463993202       -6.4402066590
  O        -2.1788738873        5.3701926195        2.2840044134
  H        -1.4432000315        4.7309033627        2.5428048229
  H        -1.8216660467        6.2778383608        2.2235467399
  O         5.7121945851       -1.6440440423        6.2191425243
  H         5.7182654871       -1.0364339390        7.0407698212
  H         4.8101107809       -1.4514146215        5.8070830262
  O         4.9731661246        8.1611397490        4.8452128484
  H         4.3805354945        8.9968984154        4.8045279795
  H         5.3270784404        8.0344718958        5.7865230611
  O         4.0311872562        5.5026308373        4.5597996670
  H         3.6146958823        5.2348706489        5.4510391746
  H         4.3702332794        6.4529183462        4.7335685898
  O         0.5225136934        1.5302979910       -6.6812129846
  H         0.1943622194        0.6691654668       -7.1950926089
  H         0.7028879972        1.2800416045       -5.7917151107
  O         5.7828789087        7.5529319210        7.7079494409
  H         6.5058345825        8.2063339366        7.8840363289
  H         5.0520767469        7.8499635365        8.3316970153
  O         5.0911248372        1.0562980934       -5.7863602004
  H         5.4271041098        0.6764991569       -6.6488334332
  H         5.7844591481        0.8902281068       -5.0907404671
  O         8.8618529898       -0.9387948819       -5.4628703271
  H        -7.6841083421       -1.1687529467       -5.7825625616
  H         8.3571480725       -1.1659276607       -6.3140354014
  O        -1.2042264133        3.1901882714        5.3667063039
  H        -1.4731808373        2.2427024300        5.1833932715
  H        -2.0623604234        3.6745924037        5.5236246294
  O        -6.6537252100       -0.9249071836        8.4916187562
  H        -6.5981942216       -1.8156794646        8.0342629112
  H        -5.8349121628       -0.3883816894        8.2721303594
  O        -2.0787951113       -0.9900109078       -5.4850745523
  H        -2.8774918773       -0.4014440428       -5.5362301642
  H        -4.0022850259        5.8728241168       -6.3896169780
  O        -4.6437856218        6.1713076718        6.8392230585
  H        -5.5782716275        6.2060488868        6.4655432075
  H        -4.3425616932        7.1159068645        6.8762709456
  O         8.4142103900        2.0424972455        6.2904253615
  H         8.7081815846        1.5767721950        5.4527381820
  H         7.5094109079        2.3732846854        6.2270058455
  O        -1.1332556265        0.6087006972        4.6366404914
  H        -1.8914731545        0.1499227919        4.1887546342
  H        -0.2714928461        0.1983555907        4.3964630749
  O         8.5635374331       -2.9839223646       -3.7030457613
  H         8.6128915178       -2.1190201070       -4.2643138725
  O         6.1349159914        3.6157497924        6.5207114489
  H         5.8477993362        4.2847426634        5.7973677727
  H         6.4364557780        4.1456334505        7.2968359515
  O         8.6631954846        6.3874913980       -3.5084562841
  H         8.3720224258        5.8954955718       -2.6994659272
  H        -7.8842184828        6.0719666477       -3.7739928604
  O         0.7630962757        8.7633344508        5.3987935904
  O        -5.7074712188        8.5754866287        0.9036030857
  H        -5.7935020211        8.1213055072        1.7572388105
  H        -5.5600786187        7.8185854650        0.2773502977
  O         6.3100216735       -1.8490766186        2.0784500714
  H         6.8298794389       -2.0647442941        2.8794379462
  H         5.3684708317       -2.1209732000        2.2353635364
  O        -4.1604439087        0.8839103126       -5.6444325243
  H        -4.5391311914        1.6671300720       -5.1741398689
  O         1.5110632553        1.8300769787       -1.5644404840
  H         1.5458997971        0.9424199180       -1.0474326412
  H         1.0150631705        2.2981154802       -0.8288461123
  O        -7.4357374010        6.3537292235        6.1258452542
  H        -7.5865278349        7.3176426515        6.2234988631
  H        -7.6278906796        5.9799205953        6.9543321972
  O        -2.1706866428       -0.5879912939        7.3686593751
  H        -1.7602357814       -0.1788461678        6.5950694341
  H        -3.0605241825       -0.1638980266        7.4799272498
  O         3.3451302932        6.5654756553        0.3887567990
  H         3.9189848595        7.0919153507        0.9174583333
  H         3.0148024215        5.9103127877        0.9899585485
  O        -5.7944605011        2.7786686115       -4.5455061132
  H        -6.6821221433        2.4799149383       -4.7661664673
  H        -5.9119342731        3.6779764095       -4.0617762707
  H         4.6363135829        2.6553252081       -5.4242300821
  O        -4.9550158067        7.2362866176       -1.3946182770
  H        -4.3532818405        6.5067821356       -1.0991558437
  H        -4.3354018147        8.0592501476       -1.5385165636
  H         8.9965854348        0.4897988331       -4.6263555713
  O         0.8055510832       -0.3596095612        0.3484023323
  H         0.2252006144        0.4311228165        0.5958187452
  H         0.2064737774       -1.1492454082        0.4641401260
  O         7.8477406856        5.4684813903       -1.2075940395
  H         8.3153955609        4.5540783935       -1.0501048011
  H         6.8858824269        5.2235310989       -1.3832818172
  O         2.4699046179       -1.1315943089       -3.0303020873
  H         3.0809428727       -0.5093294188       -3.4576235907
  H         1.6652241414       -0.4927323111       -3.0013885796
  O         9.3789980369        3.3015723703       -0.5548387104
  H         9.2054629052        2.7733383936        0.2444420464
  H        -7.3870618774        2.7793165921       -1.1237481991
  O         0.9760418862        7.2170254967        7.9075996947
  H         0.9566321000        7.6348990568        6.9990965614
  H         0.7395322014        6.2660626880        7.8279293936
  O        -1.0407851115        7.3830803961       -1.8183678994
  H        -1.4442115235        8.1112119185       -2.3501765198
  H        -0.0825664224        7.5516551878       -2.0505537722
  O        -3.4561383101        8.7523988543        7.1278820980
  H        -2.7716352018        9.0362850855        6.4055994061
  O        -0.1032015364        3.8546451439        3.0540910145
  H        -0.2979384848        3.6034185006        3.9987426386
  H         0.6073901248        4.5380346601        3.0737324504
  O        -4.5719348877        0.4905087780        7.7038971542
  H        -4.1982722037        1.1758379500        8.3331179186
  H        -4.7167166968        0.7542450219        6.7670135479
  H        -6.1180688724        9.4992045901       -4.8726905202
  O        -6.0067990728        0.1267706503       -0.0376657798
  H        -5.8344774722       -0.8139539227       -0.3268200896
  H        -6.1460684759        0.6161749805       -0.9386102112
  O        -5.4239057389        3.0727676492        4.2203311127
  H        -6.2542253192        3.6367813384        4.3511704634
  H        -4.6328155897        3.5807237627        4.5593711327
  O         5.2882160710        7.8476784016        1.9918837858
  H         5.3809810615        7.8530297383        2.9515958276
  H         6.1858177681        7.7302060303        1.6672253334
  O        -6.5669346868        1.8086797104       -2.1002741274
  H        -6.0756977096        2.2424496812       -2.8152061686
  H        -7.2358607993        1.3199935091       -2.6200964768
  H        -2.1576618762        6.8209662649       -5.7816065444
  H        -2.4640243226       -2.7165613409       -6.4140649529
  O         3.8200937711        1.6527749781        7.2575362149
  H         4.5437735404        2.3018083573        7.0342920710
  H         3.4289922709        2.0828020099        8.0364988065
  H        -7.1732079636        9.0647624795        0.3644375437
  O        -3.3655422215        4.5735465570        4.9220625623
  H        -3.7897471475        5.1899100770        5.5459054683
  H        -3.0277595390        5.0756462835        4.1332189197
  O         8.0148095378        6.6791690566        3.1239530206
  H         8.3814338294        5.7535898868        3.1375073873
  H         7.8050742256        6.8511378365        2.1059858175
  O         3.0754087813       -0.5195093241        5.8385520972
  H         3.1245343858        0.3588117177        6.3895361297
  H         2.6144948675       -1.1055390035        6.5333509991
  O         7.9751921477       -1.8551675761        4.4248373316
  H         8.5402423039       -1.0682485302        4.1952194045
  H         7.2584067366       -1.5284916871        5.0135484666
  O        -8.4426905509        8.7148119789       -2.4181861804
  H        -7.6328211899        9.0568415814       -2.8909316371
  H        -8.7031556460        7.8638601789       -2.8688916302
  O         4.1719016696        7.1810513852       -2.8371498648
  H         3.1699290376        7.2428298901       -2.7781349949
  H         4.3929030429        6.3588037616       -2.2508610257
  O        -5.9840316029        5.5757719033       -3.8016653648
  H        -5.5486608050        6.1121057187       -3.0505187282
  H        -5.4192454732        5.7807444637       -4.6236376170
  O        -7.0218519073        7.8293870774        3.0354708236
  H        -7.0318586805        8.7173271102        3.3038553662
  H        -7.9626141201        7.5513976464        2.9270103647
  O         4.5153491746        7.4510378179       -5.5585735183
  H         4.4135030437        7.4313095188       -4.5970376207
  H         4.9326325330        6.5236723395       -5.7494924858
  O        -2.2227347623       -3.1728348502        7.4986232754
  H        -2.2311967824       -2.1627810113        7.3752543443
  O         5.1930524608       -3.8638911719       -8.2995740918
  H         4.6660979703       -3.1021825129       -8.0050687679
  H         4.9917098311       -4.5875746650       -7.6638183764
  H         1.0445780033       -4.6838047139       -9.0348501004
  O         2.4785911487       -7.2288359919       -6.4181597536
  H         2.7256754617       -7.9466131503       -7.0226234966
  H         3.3645319867       -6.7023178032       -6.4494874355
  O        -5.9371818020       -6.2258574910       -7.7068635535
  H        -6.6373046262       -5.5086147973       -7.6093507825
  H        -5.8051957714       -6.2774616390       -8.7463154838
  O        -1.6943756724       -9.3671132873       -8.4118049762
  H        -1.5506631447       -8.5158844434       -7.8247054148
  H         6.7979227469       -4.5875167371       -9.2276505423
  O         6.5513895958       -8.1651500112       -6.2516715807
  H         5.9566610095       -8.9502072696       -6.0664402155
  O        -1.4737151030       -7.2574655434       -6.7854482696
  H        -2.2548222614       -6.6065319300       -6.6996368176
  H        -0.8066694032       -6.5506459097       -7.1334360088
  O         4.9190323853       -5.9694943933       -6.4537311467
  H         5.5400112836       -6.7816562868       -6.3413577087
  O        -3.6633068689       -5.6625150433       -6.4686799305
  H        -3.8784102686       -5.8778764770       -5.5332917312
  H        -4.5109934583       -5.7324060500       -6.8958442349
  O         7.7499955848       -7.7419872806       -8.8390397191
  H         7.5211740099       -7.9487236361       -7.8917755662
  O         0.6054274629       -5.5719263327       -7.4071688294
  H         1.2845092099       -6.2254631929       -6.9647057507
  H         0.4864923114       -4.9255693216       -6.6800567070
  H        -2.8097116502       -4.2940293270       -6.5930352010
  O        -8.4016892524       -4.4859398223       -7.3020176202
  H         8.3783785030       -4.9929395359       -8.0021044756
  H        -8.6236397741       -3.6317871256       -7.5760708603
  C        -1.4080867249       -2.8059520513       -1.8372175268
  C        -2.1779423195       -3.0356308845       -0.5822032430
  H        -1.0162856621       -3.6577895192       -2.3641098063
  H        -2.2476024723       -4.1094958908       -0.2508193177
  O         2.5264440003       -2.7800940885       -5.0637019906
  H         3.3255501154       -3.4365269940       -4.8171869612
  O         7.1297651468       -7.2820622491       -3.7717659104
  H         6.3166292544       -7.4422660815       -3.2235415238
  H        -9.6238896055       -7.8081775379       -3.2379542139
  O         9.0486278528       -4.0985132658        5.8481163972
  H         9.2551397833       -4.8432155583        5.2580955250
  H         8.8355337010       -3.2133777043        5.3313720169
  O        -4.2194831902       -4.5635379008        6.0550801864
  H        -3.7830906867       -4.2724922850        5.2054217246
  H        -3.7399973825       -4.1874906394        6.7873207715
  O         0.2136953078       -3.8909638955       -5.1563018988
  H         1.0012481651       -3.2879557410       -5.1141572350
  H        -0.4937745153       -3.4958969784       -5.7248916884
  O        -0.4671549474       -2.9098632872        3.7432917752
  H         0.1765878506       -2.2268049515        3.9680674419
  H         0.0426107347       -3.4942611491        3.1562864472
  O         4.5700689024       -4.2801100891       -4.1501738285
  H         4.9708093521       -3.4852377193       -3.7113226045
  H         4.2338230200       -4.7887539969       -3.4048358871
  O         3.3599564303       -5.6929792234       -2.1101561849
  H         2.6228642476       -6.0552674354       -2.6924841054
  H         3.8752670966       -6.4868861059       -1.8757150794
  O         5.5119507169       -2.3493583631       -0.4637781171
  H         4.6069695358       -2.6206582845       -0.1394317579
  O        -7.7143587128       -6.4810445643        4.6061354017
  H        -7.3623376121       -7.1361498025        5.3091764528
  H         8.7674402446       -6.6901310387        4.4337639041
  O         1.1839262751       -4.2579165532        7.5348379668
  H         0.4108509674       -4.6087061019        6.9483168117
  O         5.0406592816       -7.9133908200       -1.9209953728
  H         4.8000265608       -8.8503331942       -2.1390218574
  H         4.9503785054       -7.8848514439       -0.9590910664
  O         0.2580341258       -6.5214197426       -0.9651884237
  H         0.9477932342       -5.9342539365       -0.7116371212
  H        -0.0119559220       -6.1795038966       -1.8065643247
  O        -5.6816899375       -3.3148053716       -4.7525175129
  H        -6.6342984129       -3.2694935025       -4.5154820901
  O         3.3791568088       -7.1973822131        4.9870864055
  H         3.6226074576       -6.5049512032        5.5976783302
  H         3.1044178102       -6.8549051202        4.1055682133
  O        -4.5997350639       -6.6440137407        2.0846306291
  H        -5.3750976989       -6.0278578089        2.1195637748
  H        -4.9045059244       -7.2745661719        1.3408291493
  O        -2.9117320093       -3.4382182691        3.5840869753
  H        -3.4716683661       -3.3355274438        2.7710717457
  H        -2.0748287988       -2.9763404194        3.4589846299
  O        -5.6331008089       -2.5066021194       -0.6197009267
  H        -5.0261469773       -2.8250392935       -1.2900483091
  H        -6.5223034418       -2.9257405759       -0.8376883565
  O        -1.5146706960       -7.4547280453        5.6228839891
  H        -1.3971039738       -6.4669381473        5.9439550139
  H        -1.8070614560       -7.2785053291        4.7070243037
  O        -0.8685431947       -4.6919999008        5.9030459654
  H        -0.7331518010       -4.2468438673        5.0621343316
  H        -1.4713218726       -4.1443485375        6.4533743194
  O        -6.8336590765       -4.8743178133        2.4895688174
  H        -7.5837344545       -4.8782593204        1.8326815828
  H        -7.1513608458       -5.2861151689        3.2984414557
  H        -0.7853873917       -9.5917562472        8.7164504593
  O        -3.2088375969       -8.2801398118       -1.8185127614
  H        -2.9485423686       -7.7963455609       -0.9865183073
  H        -3.5065727400       -7.6021317487       -2.4767790147
  H        -8.9269716633       -3.7397603583       -4.2827377984
  O         4.2610461585       -3.6954729045        2.5669721545
  H         4.4748786585       -3.8241834293        3.5117663498
  H         3.3153865296       -3.9644398836        2.3942759482
  O        -2.0717454643       -6.7141055673        0.5906758963
  H        -1.2352973399       -6.3957873050        0.2111955089
  H        -2.0165644365       -6.4317681405        1.4973744309
  O         1.4816394748       -4.4340164023        2.2511179008
  H         1.5285212670       -5.4488706482        2.0644116945
  H         1.6385369523       -4.0608663035        1.3525110281
  O        -2.3081214741       -9.1103701915       -4.6862408656
  H        -1.8534628040       -8.6866011532       -5.4570396439
  H        -3.1624650235       -8.6271836093       -4.7335581826
  H        -0.0481401722       -8.0276978043        5.6475465448
  H         1.5577138214       -8.0699779341        5.5069631381
  O         1.6936680736       -7.1079704442       -3.8197247189
  H         0.7199755662       -6.6803626169       -3.8287423979
  H         2.0634255919       -7.1696283931       -4.7307644877
  O         7.5500602358       -5.1659709777        7.9663349027
  H         8.0556591087       -4.7330580296        7.1975245769
  O         2.8298812013       -3.6712809781       -0.3598097031
  H         2.9527062806       -4.4191422158       -1.0709339413
  H         2.4863638994       -2.9045816932       -0.8600742500
  O        -8.5591377229       -5.6723630072       -4.6612886494
  H        -8.6638446109       -5.5987586306       -5.6366131373
  H        -9.3970430488       -6.1276074290       -4.3881946748
  H         6.8298756212       -7.8960870616       -5.2513685864
  O        -5.0820139157       -2.8071557464        2.1155952486
  H        -5.6974248624       -3.5855580025        2.2969466931
  H        -5.1981600843       -2.7250756285        1.1463548767
  O        -8.5315087924       -5.5176210102        0.4020016845
  H        -8.2007408725       -6.4488042556        0.1572386949
  H         7.8702968076       -5.4481465596        0.6882783080
  H         5.0137787240       -5.5133165770       -5.5436339754
  O         6.9565532733       -6.4897377051        4.0722220096
  H         6.4483579738       -7.2420660056        4.3960049461
  H         6.4493247721       -5.7016342727        4.3998152046
  O        -6.4146589775       -3.3664415276        7.4985237306
  H        -7.1318970688       -3.8135605893        6.9189756857
  H        -5.5926834023       -3.5648593461        6.9707747696
  O        -6.4338688771       -7.5604524549       -3.9948674089
  H        -7.0211302821       -6.7789856256       -4.2452968963
  O        -7.6471491971       -8.2749028098        6.6755758347
  H        -6.8428455379       -7.8174859598        7.0099602592
  H        -8.3358167550       -8.3245827379        7.4230226660
  O         2.3133834291       -6.9490469176        2.1779270813
  H         2.9821726313       -7.1250296807        1.4939690480
  H         1.8108133247       -7.7934000445        2.3370215363
  H         7.6158552054       -6.8420939458        8.3257432659
  O         4.5961677678       -7.4030661725        0.6117378546
  H         4.7197307640       -8.3454959519        1.1014980829
  H         5.3112197626       -6.8258728413        1.0578530225
  O         6.4524680502       -5.5153656675        1.5312228490
  H         5.8305901807       -4.7407885626        1.7191849793
  H         6.8470400094       -5.8540455587        2.4071601739
  O         3.5382512903       -5.0127360253        6.8969769965
  H         4.1713475843       -4.8314125132        7.6354210096
  H         2.6219115143       -4.7553269202        7.2148841716
  O        -3.9517600766       -6.3494450634       -3.7506048869
  H        -3.9994489687       -5.3849522996       -3.4240203136
  H        -4.8363089922       -6.7208826229       -3.8131884601
  O        -8.0466924141       -8.0049902989        0.1271251662
  H        -8.1872878245       -8.4338673629       -0.7466235192
  O        -3.9110280102       -3.7905087640       -3.0204008938
  H        -4.6031873654       -3.4469130545       -3.6531056481
  H        -3.1002898718       -3.2688719906       -3.2227445785
  O         5.2988522064       -4.0995891947        5.0352009301
  H         5.6533407690       -3.3361039102        5.5515596528
  H         4.6485637675       -4.4840263346        5.7509196796
  O        -0.4953185439       -5.6317580595       -3.4458298178
  H        -1.3584982969       -5.9943264890       -3.7221136469
  H        -0.2595020627       -4.8507736631       -4.0657782719
  O        -7.9389219528       -3.4731829242       -1.0907924939
  H        -8.1830117847       -4.2065544731       -0.5017111531
  H        -8.3510555059       -3.3714475972       -1.9527249943
  O        -5.4476573492       -6.6078284543        7.0515372474
  H        -4.6569398660       -7.2418998345        7.2508870815
  H        -5.0342191123       -5.8772938414        6.4622526395
  O        -2.2793265829       -6.3535317876        3.2550051557
  H        -2.1942866249       -5.4748064728        3.7027361784
  H        -3.1999079252       -6.4861108383        2.9565892759
  O        -1.0891864087        3.4580870654       -7.3932904374
  H        -0.4505156481        2.8819919101       -6.9624259832
  H        -1.2894865381        4.1668770368       -6.7576781536
  O        -5.5623460320        4.4240778708       -8.4724115260
  H        -0.2691493486        4.0700799900       -8.7783831114
  O         3.4190096714        7.8280748952       -8.0217377863
  H         2.5937383136        7.6091393718       -8.5143803343
  H         3.2659527352        7.6123199679       -7.0895434255
  H         6.6130383982        0.4430436025       -8.5960629791
  O         1.6966320662       -1.6008087240       -9.4921159266
  H         1.4464493481       -2.6031535578       -9.5407438250
  H         2.2417277974       -1.5686441807       -8.6876630684
  O         7.0242000437        5.3061742907       -8.6500644577
  H         6.7990042588        5.1534358230       -7.6957306890
  O        -0.4433365835       -0.7206845377       -7.9711228128
  H         0.2597567101       -1.2177450581       -8.4256133064
  H        -0.9340391466       -0.4896424336       -8.8399663703
  O         8.5023262859        0.4165034793       -8.7630596035
  H        -7.9918171608        0.0534415364       -8.8165948832
  O        -4.8197537011        8.6694582089       -6.0352789354
  H        -4.8972382500        9.1656891924       -6.8966754945
  H        -5.0342699961        7.7865034749       -6.2595269982
  O         3.6089386022       -1.8704969968       -7.2574757234
  H         4.0232154672       -1.0948329813       -6.8093717225
  H        -1.5421065979       -0.7763236114       -6.2330117070
  O        -4.9686333881        6.0809284529       -6.2922701776
  H        -5.3372645314        5.5147042578       -7.0194862091
  O        -6.1451544515       -1.0540081064       -6.3947194622
  H        -5.6420453190       -0.2036775317       -6.1979357323
  H        -6.4208621797       -1.0447984626       -7.3297225281
  H        -3.8178241236        1.4421126882       -6.4678153517
  O         4.3623162950        3.5932948105       -5.0983954184
  H         3.6210252642        3.6876598263       -5.7791011544
  O         9.0472475648        1.2026154995       -3.9203898838
  H         8.2063563636        1.5285067101       -3.6097359354
  O        -3.4404351285        2.3045175680       -8.0140590018
  H        -4.1653221732        2.9492425390       -8.0542564258
  H        -2.5835991478        2.7646434228       -7.7937992879
  H        -2.9138699542        8.4447027105       -9.5135039517
  O         2.4187941695        2.9277420815       -8.1511447590
  H         1.8196227356        3.3260933634       -8.7993358657
  H         1.8075737340        2.3601018800       -7.5689602432
  O         7.7821022654       -1.9616720161       -7.8944296653
  H         6.8418134097       -2.1580751290       -7.9232160161
  H         7.8755015582       -1.1384640322       -8.4815870517
  O        -2.3300176733        6.1642367747       -6.5262792900
  H        -2.1047557366        6.7453185172       -7.2863707358
  O        -2.1531362523       -3.6044055154       -6.8824966673
  H        -2.3563260002       -3.3869738158       -8.9548724306