     510
 i =    38380, time =    19190.000, E =      -693.3894094740
  S         5.1299461443        7.3280700179        1.6662412324
  O         9.5112873149        6.6074885300        6.2235939715
  O         5.6688838849        4.3361984769        8.2386200881
  O         7.2557222924        5.9693869190        1.8993605016
  N         8.1969806420        6.7440370149        3.8921869409
  C         7.4440409979        6.3002640709        5.0100203048
  C         8.1622981789        6.0710021976        6.2264283579
  C         6.1301141585        5.8242688245        4.8976977051
  C         7.5179672921        5.5624742598        7.3426609545
  C         6.2104141963        5.0515699642        7.1310653260
  C         5.4788629948        5.1848954938        5.9413106611
  C         7.6353370716        7.1654056401        2.6127884583
  C         6.3983524588        8.1187800413        2.5535271975
  C         5.9042242921        9.2215136818        3.1811295473
  C         4.5959465570        9.5336469675        2.8090410000
  C         3.9715353419        8.5235649824        2.1490003749
  C        10.4178493842        5.9128658202        7.1754901710
  C         4.7963912177        3.2536530400        7.8724958694
  H         5.5919933311        5.8427449058        3.9182354768
  H         7.9392379683        5.3706979396        8.3407358863
  H         9.0706017725        7.1985040654        4.1561428387
  H         4.4191473360        4.8588431093        5.9417051478
  H         6.5317465381        9.8651355452        3.8357771998
  H         4.0584361207       10.3603543246        3.3217157714
  H         2.9693208995        8.7919349951        1.8419926350
  H        11.4330457654        5.7979888180        6.6673801566
  H         9.9999267676        4.9334838819        7.4281337112
  H        10.5985085561        6.3977957132        8.1436935623
  H         5.3116727082        2.6171895833        7.0794623605
  H         4.6379677884        2.5336944493        8.7399451983
  H         3.8280449436        3.5921773425        7.5298088974
  O        10.4427263375       -5.0623040636       13.6417239302
  H        10.7839450118       -5.5897066027       12.8986413260
  H        11.2040442402       -4.9588261399       14.2771502455
  O        19.2178109817       19.1098095823        9.0286775821
  H        19.5790272166       19.0032382397        9.8760870063
  H        18.9908453366       20.0052779863        8.9907040511
  O        -2.9730325867       16.1963988724        5.4354155879
  H        -2.8600726532       16.6835270771        6.2861813618
  H        -2.8137507350       15.2403732940        5.5737612604
  O        20.0175561507        6.3748769695       -0.3341738728
  H        20.1100021451        5.5514188363       -0.8171373804
  H        19.1179581965        6.6063736435       -0.2024884281
  O        20.3029644084        0.9391518966       -3.4218609091
  H        20.8103832377        0.3228846707       -2.9352520418
  H        20.6324770474        1.7751847419       -3.1639730111
  O        -3.1142535657        6.1531621526        8.9100823046
  H        -2.5782676155        6.9002237799        9.1048538643
  H        -3.6032522884        6.4580107716        8.1422538127
  O        14.8689168299       -9.5877884229       19.7730435533
  H        15.8049166801       -9.3985586973       19.5156358274
  H        14.3710419878       -8.7482994585       19.7572582422
  O         2.8948175578        9.8894034804        8.7289766717
  H         3.5520939262        9.2534454789        8.9932041502
  H         2.2597530282        9.4100457916        8.1700403284
  O         7.4977629821        4.1680002670       -2.8051581038
  H         8.2561920323        3.6635509176       -3.1542745304
  H         7.4156343631        3.9711186298       -1.8533110411
  O         8.4944134583        2.7613237164       -7.1639332543
  H         8.6860715653        1.9732703547       -7.6810006659
  H         7.5054650157        2.8259218070       -7.0580359197
  O         1.4442913744        4.7606250667        9.1231686724
  H         0.8790597353        5.0732268500        8.4211378966
  H         1.1668784838        5.3275464817        9.8552877447
  O        12.9884169909        0.7778813345       -1.9729071555
  H        13.7941253723        0.7048622777       -1.4352759204
  H        13.2414169185        0.7226162457       -2.9126728620
  O        -1.1924170965        4.2499098449        7.8544474434
  H        -1.2422892939        3.7727051046        6.9846795679
  H        -2.0400512742        4.7241714715        7.9439290045
  O         9.1663028378        2.4039596215        5.9341693533
  H         9.4637560342        3.2473829644        6.2535770208
  H         9.8727000543        2.1093551704        5.3293377971
  O        14.3686616788        6.8922240917       13.8237204128
  H        14.1404555310        7.7904533041       14.1380144193
  H        13.5493227799        6.3987876121       13.5162378094
  O         5.0753771783       -0.0752505211        9.3875711157
  H         4.7497939576        0.5560670015       10.0766562006
  H         4.5987047665        0.1232448431        8.5453399867
  O         4.1456157536       18.8100796518       -5.9617346285
  H         4.7308582938       19.5331525840       -5.8167151444
  H         4.0093883830       18.2921296375       -5.1400276305
  O         8.8886313325        7.7599241087        1.9969985677
  H         8.8670230389        7.6555238500        0.9613652966
  O        -0.9084736806       11.1635503517        4.8441642644
  H        -0.9538902138       12.0925753318        5.2659307309
  H        -1.6081696361       11.2540630207        4.1434658748
  O        10.4986841602       19.5713676479        1.8846692220
  H        11.0212634108       18.9692915127        2.4421778128
  H         9.8000287893       19.7613033544        2.5102738618
  O        10.8763762090      -12.8244464964       -3.0498334541
  H        10.4857035524      -12.6174768761       -2.1701438857
  H        11.4344524787      -12.0383995176       -3.2570604508
  O        -1.9101516401       18.6813413544        0.9965525262
  H        -1.5622061118       17.8500418793        1.4091633702
  H        -1.4368527673       19.4795706156        1.3269095715
  O        18.0040613946       -1.5554734086       16.9893906755
  H        17.3217881319       -1.5348149830       17.6971767997
  H        17.6824496313       -1.9683962623       16.1940272479
  O         5.6072983704       -2.8426930988        7.2333153437
  H         5.2246768025       -3.7273417036        7.0328298615
  H         5.0573643846       -2.5178286023        7.9436358044
  O        14.0648003416       20.1920854347       13.1618601829
  H        14.5949926298       19.4381137881       12.8473416360
  H        14.7813671337       20.7197716593       13.6162182454
  O        -6.1578416700        9.4275313514       11.7819722304
  H        -6.5188490554        8.5456586553       12.0516990472
  H        -6.7359071177        9.7426630938       11.0998063310
  O        23.7606435465        0.5418042823       -3.7884788892
  H        23.3897828770        1.2587696791       -3.1548068835
  H        23.0594340702       -0.0334680448       -4.1237091643
  O        -7.8997884559        7.0184741478       12.7604232680
  H        -7.6634053961        6.3207347967       12.1262480407
  H        -7.4055344132        6.7944613992       13.5968468363
  O        13.4086497061       -9.7958683994       -0.2226647765
  H        12.5767518871       -9.3238300587       -0.5423490940
  H        13.1742471761      -10.6629764471        0.1669635546
  O        15.7027481349       21.7057574766       -1.8461775053
  H        15.4415782599       22.4126209416       -2.5055836273
  H        14.9104813483       21.3955935236       -1.3042939357
  O        17.8813432440       -2.6350846896        5.8337262414
  H        17.5752045841       -1.7298531200        6.1087535209
  H        17.6955820845       -2.8325067216        4.9048086136
  O        18.4551234491       10.3258812583        3.6701698172
  H        17.7724549559       10.7189799376        4.2998345635
  H        19.0997497247       11.0343534284        3.4919115203
  O        25.5677289871        8.0617248805       -1.0322885192
  H        24.8173839515        7.5153207011       -1.3418292813
  H        25.3224506906        8.9430148572       -1.5607269463
  O        -5.9863231778       19.4614021507       11.5398770954
  H        -6.9838509525       19.3352178227       11.3702209999
  H        -6.1911467824       19.7302518654       12.5096904659
  O        -5.8000863521       17.5198942331       17.2581500557
  H        -5.4314888242       18.4026679455       16.9756431296
  H        -5.9241099236       17.1611059034       16.3760685921
  O         7.8834555167        0.0899047130       -7.0135634477
  H         8.1196190851        0.0802750418       -6.0612914349
  H         6.8955909529        0.0194305418       -7.1678833215
  O        -3.3724227683        6.2042717929        5.6226098808
  H        -4.0348504763        6.9661372515        5.6535235654
  H        -2.4557995467        6.5514721808        5.5601346776
  O         3.6195621364       16.8288670987       23.9403740133
  H         3.5521010148       16.0239922517       23.4502506555
  H         3.9171226676       17.4248317459       23.2344122931
  O        16.8609025166       14.1415589844        3.0206139378
  H        16.8565512855       13.2572448408        2.6035522074
  H        16.0045817771       14.5611548700        2.8862734671
  O        20.2426139138        7.1584614682        4.9780949149
  H        19.8230154202        7.9954221038        4.6067128634
  H        20.6450393273        6.7111977915        4.2777707519
  O        17.2624141070        7.8650182239       -6.2530538059
  H        18.1522642805        7.9241472265       -5.8321754179
  H        17.3750634445        7.8932250083       -7.2224558073
  O         7.6675490741       -1.9558862644       22.5930320722
  H         8.1610228475       -1.1078016390       22.6318981707
  H         6.8970117488       -2.1954383058       23.1590245606
  O        -0.0527700774       11.9056748971        1.4374390320
  H         0.9197555811       11.8567065280        1.4327661006
  H        -0.3571343892       12.4119096956        0.6551152549
  O        -0.7604205878        2.4812479501        9.9393202935
  H        -0.8009810258        3.1879225095       10.5469203030
  H        -1.2380947264        2.8356414939        9.1772487948
  O         0.5392154395        1.9147354213       13.3323341202
  H         1.1019438752        1.3369801872       12.8222789087
  H         0.7537607562        2.8386762142       13.1751576383
  O         2.9456311183       13.0709630643        2.5246352976
  H         2.9256274574       12.6090483989        3.4482682176
  H         3.6038154498       12.5797310201        1.9802440314
  O         9.1889381519       15.2341709504        1.2235398438
  H         9.8872762459       14.7682226932        1.7215968068
  H         9.5015159337       16.1535249556        1.2627025979
  O        -3.1880442092        9.9439775524        3.0874633899
  H        -3.3928474382       10.6692029744        2.4817313332
  H        -3.9482601902        9.6699028226        3.6150767097
  O        16.3532537586        3.8316095439        2.3252094803
  H        16.4338610349        3.3479856099        3.2004392907
  H        16.3843208996        4.8126131590        2.4249569762
  O        29.3324841930       -8.8150383758        9.3450817443
  H        29.4009740453       -8.8572640473       10.3030956925
  H        29.8943601247       -8.0575380432        9.0624104266
  O         7.1089493003       10.5961485372       17.3620569998
  H         6.5517960140       11.3976144026       17.6090661921
  H         6.4562002856        9.8933663061       17.4612408565
  O         3.6304807343        4.4014726130        2.9519790616
  H         3.3372661192        3.5812679172        2.5101004179
  H         4.5276886626        4.5490219066        2.7565505132
  O        21.3882791954       -1.9322249918      -12.4585649695
  H        21.4643770057       -2.8870053346      -12.2760455415
  H        21.9552543828       -1.4457498839      -11.8762644973
  O         4.7723342068        4.0125357152       -3.1078614027
  H         4.8863258698        4.8278074161       -2.6373079466
  H         5.6540051841        3.7354933986       -3.2627948723
  O         2.3862356622       -0.4540789340        2.9333709707
  H         2.7873568009       -1.2626109861        3.2370310725
  H         1.7370018446       -0.7987956280        2.2313045296
  O         4.5946737512       -1.9611405783       13.7592947770
  H         4.6912147686       -2.8363115973       14.1774852895
  H         5.3452302478       -1.5353489303       14.1579564725
  O         2.9248369698       -1.1019994719       11.4843130873
  H         2.5536698744       -1.3130006708       10.6049588383
  H         2.9627090066       -1.8882723618       12.0759392036
  O        17.6801077536        4.7710840683      -11.9783327081
  H        17.4803666389        4.6633880716      -10.9966268908
  H        18.4582237939        5.2973706657      -11.9715386311
  O        11.2914855595       11.4173893022        8.0218716188
  H        10.6908107786       12.0683395412        8.3601830036
  H        10.9312971316       11.1835278437        7.0930453460
  O         0.8502588874        1.8138549652        4.5196189958
  H         0.7510678976        2.7130184168        4.8998766588
  H         1.7450359505        1.7864570687        4.1172777335
  O        -5.3665488457       14.5215163661      -10.2580218502
  H        -4.9484302310       15.3679777382       -9.9790706588
  H        -6.1301364536       14.4395939402       -9.6835177279
  O        16.9143271587        6.4103200882       16.9851589337
  H        15.9726116279        6.7266481122       17.0611468988
  H        16.8565533977        5.4543082576       16.6973522071
  O         3.4192182291       23.8923996296        8.5824053305
  H         2.9072827585       23.0514734867        8.6580964689
  H         4.3571101132       23.7117545891        8.4088787938
  O         8.0702745090        1.4011556764       17.1924354810
  H         8.8046722586        1.9915539805       17.3583360771
  H         7.3489591044        1.9475490219       17.5736545694
  O         7.6804598811        0.1119605363       24.1257891027
  H         7.5858410377        0.2958213589       25.0573690785
  H         8.3497024649        0.6701663943       23.8006415417
  O         1.7058431544        4.7217735465       -3.8522783282
  H         2.5124428363        4.9192017806       -4.3552454748
  H         1.8278561748        4.2284902373       -3.0255030814
  O        27.7733482451       18.0821806524        8.1965035321
  H        27.5770701840       18.7288571879        8.8843183476
  H        27.7106567006       18.5793193469        7.3548233448
  O         6.7356581887       -0.7681407776        2.9098450158
  H         6.7367441895       -1.3181239370        3.7176144663
  H         7.6549729095       -0.8413475633        2.6513081604
  O        15.2650556388       -0.4496054563       -3.1321719085
  H        15.8665419484        0.3181834324       -3.0197590822
  H        15.4070963968       -0.7112783919       -4.0710853271
  O         8.3718939717        9.4379399239        6.1442166912
  H         9.0233281471        9.7870052935        5.5519580513
  H         7.5124913388        9.8903473902        5.9772004554
  O         1.4028813677       10.1131218918       -1.1716239482
  H         0.6550716787       10.1868186083       -0.5760841152
  H         1.0067524206        9.5285352090       -1.8527140647
  O        23.2884753024       13.6045987955        1.1554263860
  H        23.9200957905       14.2352087724        1.5259391535
  H        22.4435510897       14.1024432178        1.1274714495
  O        11.2084054524        5.3143294110        4.3511433762
  H        10.6304939591        5.4632644960        3.6018878816
  H        12.1659204260        5.1771903100        4.1622521541
  O        10.9117504278       14.4316623288        3.0894425128
  H        11.3758443830       15.1322241611        3.5049832132
  H        11.1449987147       13.5908851523        3.5947453563
  O         5.8008604609       14.6884068836       10.8647679400
  H         5.0382029577       14.7468951219       10.2224047302
  H         5.4561953525       14.7021520822       11.7733533288
  O        12.2786085129        9.1898887516        5.8474058727
  H        11.6145428389        8.9592451887        5.2469934278
  H        12.2121015420        8.6611068100        6.5993708943
  O        13.1868067829        3.7486970064       16.7837601116
  H        13.4896109323        2.9456369667       16.3523388846
  H        12.3406690018        3.9315211621       16.4021301769
  O         2.8518036703        8.9455943888       12.6449910812
  H         2.7657681773        9.8920218997       12.5813530342
  H         3.4579156665        8.6712833317       13.3677099676
  O        -3.0792182327       14.6948774099        9.7718511812
  H        -3.9841810751       14.4943026242        9.6394765939
  H        -2.7480041859       14.4844409364       10.6544240966
  O        -4.6861674074        5.6584297205       12.2195901886
  H        -5.0316808092        5.9224308817       11.3989643777
  H        -4.1868021194        4.8437126538       12.3349716337
  O        16.1631868358       -3.9487437125        7.7596665137
  H        15.5468510534       -3.2652577900        8.2002269805
  H        16.8713814963       -3.3980000312        7.3604098532
  O        19.6236410694       17.9883984904       -0.5942717751
  H        19.1589645117       17.1133757527       -0.5237317079
  H        20.4413280657       18.0039959151       -0.0779569798
  O        15.8871364241       -6.0504083633       -3.4347155682
  H        16.2012751756       -6.4071611884       -4.3424112925
  H        14.9324628939       -6.0354027478       -3.4917148029
  O         9.6138624190       22.4887092814       10.4118807877
  H         9.4511254910       23.1250958566        9.6991535177
  H         9.1997857010       21.6330165531       10.1642359425
  O         9.7975917441       16.8175293383       21.3639291228
  H        10.7011186493       17.0622192191       20.9953167952
  H         9.6177509897       15.8998494220       21.1156464015
  O         2.6720320346       11.6761739150       -5.2260966949
  H         1.9923075322       11.2696407184       -5.7494370738
  H         3.4661008038       11.8362296748       -5.7849767104
  O        13.0549481547       12.3320290468        1.6330248217
  H        12.2304499037       12.2354315864        1.1491793219
  H        13.1318816246       13.2779559073        1.6441362793
  O         2.5240793857       13.5914616730        8.5884456302
  H         2.0721965606       14.0928545520        7.8991623573
  H         1.9068622677       12.8722692268        8.7825159502
  O        19.0614235632       12.9382952183       -2.7198300664
  H        19.0568437576       12.6582884967       -3.6290874096
  H        19.8486838793       12.4229670186       -2.3550315236
  O        15.8756350918        4.8874862374       11.8518750807
  H        15.2172436825        5.5478383714       11.6995019634
  H        16.5900133883        5.2353319654       12.4070478570
  O         9.2331994804        4.6304166190       17.1704501018
  H         9.8812854652        4.4389130780       17.8264478385
  H         8.4573067255        5.0496234020       17.7580474420
  O        -2.9751100775       -1.7283472429        2.1945332368
  H        -2.9724938715       -1.9285614819        1.2139043467
  H        -3.4034461992       -0.8778254662        2.3403163424
  O         8.7101959988       -5.7944242129       19.7850753821
  H         7.9812518206       -5.8576243838       19.1471550148
  H         9.5459204116       -6.0927506051       19.3306483906
  O         9.7394683023       15.0966414407       25.8909049272
  H         9.0415911879       15.7199337418       25.9129840728
  H         9.8288559699       14.7162603354       26.7638045215
  O         5.9618732382       20.8311382751       -5.9816361980
  H         5.0979013768       21.3369502445       -5.7953474792
  H         6.6588749001       21.3832552890       -5.5885790855
  O         0.1973669920        0.0215067427        6.7582946201
  H         0.2512705731        0.5907063767        5.9429909000
  H         1.0776343256        0.0131919442        7.1868569733
  O        14.7756976469       20.6537412465       21.8844054283
  H        14.1060674531       21.2764444652       22.1574674328
  H        14.4160805561       20.3095380908       21.0766910686
  O        18.9615610063        2.4617929615        1.7810108365
  H        19.1146035957        2.0453131958        0.9085570506
  H        18.0916172569        2.8361205588        1.8804286824
  O         0.5025932614        9.2659716448       24.3114424470
  H        -0.2918862569        9.4850237465       24.7440195597
  H         0.6958524692        9.9356492411       23.6155373176
  O         9.0207320739       -4.1628693865        6.5066954017
  H         8.1758690115       -4.6100827565        6.7795816987
  H         8.7737773435       -3.2535022603        6.2258471930
  O        -4.7620938322        3.6935276249       -7.9702410120
  H        -5.1140316311        3.1033251617       -7.2273655382
  H        -4.2332762103        4.3557092863       -7.4823679331
  O        10.9253249093        6.7414558743       -1.5818489557
  H        10.7267325786        6.1247358280       -0.8239762780
  H        10.1522825307        7.3377078350       -1.5776631274
  O         6.6407118256       16.4022114068       15.8684156252
  H         5.8641782927       16.0395600368       16.2476902869
  H         7.2907468360       16.4628155732       16.6082275592
  O         4.2410529091       11.7509415540        0.1543718605
  H         3.3967740358       11.9031311742       -0.3006844400
  H         4.8462545259       11.6592092880       -0.5853535689
  O         6.0704263988        5.5508503723       -0.7743798010
  H         6.2920831471        5.6624242977        0.2090698398
  H         6.1424481971        6.3765454225       -1.2756379033
  O         6.2797291989        7.7417937883       -2.6054618415
  H         6.3283658380        8.6651927805       -3.0014914071
  H         6.2911411184        7.1126103056       -3.3605997542
  O        13.0140754873       26.2242086566       13.6635599651
  H        12.4672189935       26.3741440283       12.8744458404
  H        13.1796478953       27.0999274403       14.1572677607
  O        13.7298236777       12.4219335798        5.9930625183
  H        13.0517673400       12.7639267668        6.5947801145
  H        13.0936361123       12.0891740501        5.3211411752
  O        -0.3039696467       26.3580922988        1.2246699173
  H        -1.1902443979       26.5207508088        0.8327062685
  H        -0.2653964732       26.9439553598        1.9630130037
  O        14.3533712901       10.7336004510       16.3631916670
  H        15.2004098137       11.1723841334       16.4152745557
  H        13.7136211091       11.4737118647       16.4083119296
  O        26.0729444458       18.8987576079       14.6833935993
  H        25.3897805680       18.5655585233       15.2126885343
  H        26.8084037203       18.9018015473       15.2830530419
  O         6.2980308628       12.6797205128        4.4564230232
  H         7.0739809166       12.9519760530        3.9378037736
  H         5.8262405828       12.0139144545        4.0338605553
  O        14.8399390142       10.3903720334        7.4944404153
  H        14.2416864014        9.6391265866        7.3632632763
  H        14.7246242800       11.1130941252        6.8268430077
  O        -0.0391070836       16.5664759440        9.8388171686
  H         0.5751336683       17.3133604755        9.7633732103
  H        -0.8781766603       16.7663828974        9.3364125160
  O        10.3360243210       10.7833806066        0.2246973405
  H         9.5549758792       10.4716634188       -0.2368452935
  H        11.0394987631       10.0206661327        0.1346392663
  O        -1.0841175463        0.2180674532        3.1133359269
  H        -1.6814164868       -0.0931857352        3.8124841633
  H        -0.4594563336        0.7200156260        3.6698938825
  O         4.2347878797        9.0712316699       15.3866359916
  H         4.7675224842        8.3330064085       15.7304952039
  H         3.4441716374        9.0390204289       15.9875001598
  O         8.4716074889        3.8806199161        3.2606344025
  H         7.9062172708        4.2116024268        2.5897907359
  H         8.8204421312        4.7383589671        3.5425647874
  O        20.3482771697       12.0828086808        5.3158815009
  H        19.6996711232       12.3773429343        5.9727954022
  H        21.0679476558       11.5779010731        5.7507646157
  O        10.9927367123       12.1556811205        4.6647682794
  H        11.0856234355       11.2955813677        4.2217775317
  H        10.3043557504       12.0447140275        5.3522797470
  O        -8.2348994070       14.3732170009       13.1223819377
  H        -8.2116878126       13.7988990358       13.9377295479
  H        -8.9932115929       15.0032993744       13.1734255191
  O        -5.1501805940       19.1835454804       22.0899754763
  H        -4.5237865976       18.6338465955       21.5915663183
  H        -5.2843724491       20.0551469245       21.6497226422
  O         9.6530223144       16.1548722909       14.9726593315
  H        10.0263838194       16.2423946477       14.0379940592
  H         8.7073550799       16.3241945151       14.8684684214
  O        14.6380711905       14.7484830356       16.1726206136
  H        15.4422195044       14.2282154585       16.2585528517
  H        14.7579630557       15.3086251310       15.4142952122
  O         8.1699255127       12.8863301398       15.7237737890
  H         8.9369949921       13.0011261249       16.3404937831
  H         7.4473216750       13.5001435459       15.8419453082
  O         0.7803558894        6.8327261420        2.7001743410
  H         0.9481946380        7.7908377562        2.6687799803
  H         0.9944390326        6.5269815346        1.7974180158
  O         7.7993731947       10.2462495762       -2.5796692383
  H         8.6711707635       10.6728292922       -2.6770078087
  H         7.3384902289       10.8377426853       -1.9824726578
  O        10.9617726008       -0.1911345653       10.9864871863
  H        10.2028841292       -0.0993790885       10.4085921716
  H        11.6674334111        0.3098675179       10.5456485502
  O         5.8530126189       12.0762247918       -5.5561981795
  H         5.9313913738       12.8832066133       -6.1359621532
  H         6.7546441728       11.8636868274       -5.3476000737
  O        13.8447375146       11.2386610103       27.0411286050
  H        13.1873008198       11.4121142109       26.3823437055
  H        14.6559583613       11.0643095441       26.5649383824
  O        10.4407989095       30.2954950532       10.9093534753
  H        10.3156934321       30.0865237200       11.8743211503
  H        11.0733486065       29.6942024130       10.5310043116
  O         7.0558448841        8.6567197373       -5.7718399764
  H         7.8088608097        8.3954065708       -5.2349736982
  H         6.9657943627        8.1564370844       -6.6214569257
  O         3.8462306548        6.1926766665       -5.4613989800
  H         4.1347694524        7.0034838293       -5.0138324973
  H         3.5640693076        6.5125003592       -6.3501763990
  O        14.4780330926        8.5384579361       10.7379411499
  H        15.4029883199        8.8187365924       10.9568965096
  H        14.0835781514        8.1701105350       11.5653356600
  O        -3.7077986680       22.0951732089        2.8660345807
  H        -3.2115875532       21.4172285742        2.4513527897
  H        -3.1877067900       22.9352563381        2.8054724905
  O         8.6070548620       10.5499558413       10.0909133981
  H         8.8224905833       10.0741621932        9.2713270533
  H         8.0195190884       11.2903777370        9.8679305051
  O         0.0883296479       11.5287271414        9.7032278640
  H        -0.4728921255       11.5323716861        8.8745413349
  H         0.1459053531       12.4535299798       10.0111769396
  O        -5.8953993897        8.6598536022        3.4336063374
  H        -5.3504042740        7.9297937919        3.1608180488
  H        -6.7855184010        8.6246024272        3.0628258659
  O        -3.6600747373       -4.8946744912       12.7026914676
  H        -3.5451436805       -5.1446741449       11.8113389730
  H        -3.7572075454       -3.9220334607       12.8283101462
  O        12.4740182935       -1.9501355243       12.7916416980
  H        13.0788654220       -1.3294035414       13.1876927742
  H        11.7511947114       -1.5225596458       12.3914193040
  O        22.7172736472        2.7122522856        0.8514528550
  H        22.5290625479        3.6673479456        0.8275387547
  H        22.3300588593        2.3845668670        1.7116546185
  O        18.2268364234       -1.2401065867       -3.0860969323
  H        18.5671812972       -0.4080455138       -3.4294251523
  H        18.9010810865       -1.9170808527       -3.0916129221
  O        22.4871802825       -8.1620709014        6.5249437740
  H        21.6096226296       -8.2940304963        6.1469775975
  H        23.1592537990       -8.6444318967        6.0202090119
  O        -0.6231694776       24.1402194238        5.4680521249
  H        -0.1462251886       23.7397005805        4.7196381178
  H        -0.2410056565       25.0567642885        5.5862487218
  O        12.5779901809        1.0685463548       19.6584916456
  H        13.2423833475        1.6068080241       19.2048034996
  H        12.3400048126        0.4690167820       18.9025346845
  O        34.2960948656        7.9589258718       -2.6845772414
  H        34.8076468123        7.5400420325       -3.3549051863
  H        34.1708043187        7.3733746188       -1.8637491918
  O         4.6050236505        0.2126623369        1.4897270991
  H         5.5004777589       -0.0714619519        1.8380296033
  H         3.9376778559        0.0727156862        2.1804476320
  O        14.2767266658       17.5922032611       27.8311784136
  H        14.7907088063       18.3805414714       27.6404186077
  H        14.0366201791       17.1655450469       26.9715274063
  O         4.8643236269       11.7115822168        8.1979508339
  H         4.0347324284       11.2232531110        8.3848256044
  H         5.5328158186       11.1377383665        8.6562192909
  O         7.4842382258       12.8620646660       26.0094844237
  H         6.8943409783       13.4123491982       25.4560861906
  H         8.3899564488       13.1838945811       25.8578412443
  O        11.9155067657       14.4475435542       -0.9615718895
  H        12.2687235510       15.0757665895       -0.2835655709
  H        11.7183069941       14.9449840194       -1.7247472204
  O         4.8918846823       11.7367458837       14.2766976586
  H         4.7886539352       10.7612403849       14.4247277386
  H         5.4095770842       11.9011312400       13.4568327559
  O         7.7056820022        8.2674249284        8.6233480690
  H         7.9738183997        7.6408431893        7.9364401099
  H         7.2960666575        9.0258678183        8.1650958327
  O        13.6315009936       17.4927063730        8.0538357635
  H        14.0892183846       18.1802006403        7.4854876282
  H        12.7586332283       17.7591627189        8.3282739621
  O         4.0327130013       -1.9715848152       -0.2445976965
  H         4.1771987246       -1.2828142876        0.3649260076
  H         3.2259868943       -1.7462505356       -0.7699714991
  O        16.9245540014       13.9858091503       12.1264389015
  H        16.7758854081       14.3459988309       13.0089613455
  H        17.4386079198       14.6063126029       11.5601356979
  O        -0.3182491364       29.6045645845       15.5829243665
  H         0.6478734842       29.4793275524       15.4066809624
  H        -0.6691919163       29.2209040118       14.7330751721
  O         6.6803115475       19.0565727652       21.5896182023
  H         7.2700578292       19.4817299037       22.2134164389
  H         7.1827061451       18.5511128745       20.9292743350
  O         2.5072858225        3.6595362940       -1.4465168249
  H         2.0559505515        2.8302979725       -1.4445848478
  H         3.4238725392        3.4768150122       -1.2672302264
  O         3.7772868027       18.1919534486       21.5376081298
  H         3.5197230956       17.9858552258       20.6419741181
  H         4.5803951404       18.7065624196       21.5728811536
